version 3
run AeroNetwokMixConnectiom-0-20231222-09:37:32-8305
attr configname AeroNetwokMixConnectiom
attr datetime 20231222-09:37:32
attr datetimef 20231222-093732
attr experiment AeroNetwokMixConnectiom
attr inifile omnetpp.ini
attr iterationvars ""
attr iterationvarsd ""
attr iterationvarsf ""
attr measurement ""
attr network AeroCommNetwork
attr processid 8305
attr repetition 0
attr replication #0
attr resultdir results
attr runnumber 0
attr seedset 0
config debug-on-errors true
config image-path ../../inet4.5/images
config network AeroCommNetwork
config description "Whole World"
config **.numFixedClients 2
config **.numMobileClients 1
config **.numOfAirports 2
config **.numOfAtcArea 2
config **.numOfAtcFir 2
config **.numOfSectors 2
config num-rngs 3
config **.internet.ipv4Delayer.rng-0 1
config **.internet.ipv4Delayer.config "xmldoc(\"internetCloud.xml\")"
config **.configurator.config "xmldoc(\"ContinentalNetwok.xml\")"
config **.atcAgent*.numApps 1
config **.atcAgent*.app[0].typename AcpAgentApp
config **.areaRouter*.app[0].nodeName "\"\""
config **.atmAccessPoint*.wlan[*].mgmt.typename Ieee80211MgmtAp
config **.atmAccessPoint*.wlan[*].radio.transmitter.power 10000mW
config **.atmAccessPoint*.wlan[*].radio.displayCommunicationRange true
config **.atmAccessPoint*.wlan[*].mgmt.beaconInterval 100ms
config **.atmAccessPoint*.wlan[*].radio.transmitter.headerLength 96b
config **.atmAccessPoint*.wlan[*].radio.receiver.sensitivity -85dBm
config **.atmAccessPoint*.wlan[*].radio.receiver.snirThreshold 4dB
config **.atmAccessPoint*.wlan[*].mgmt.ssid "\"SAWAP\""
config **.atmAccessPoint*.wlan[*].radio.channelNumber 2
config **.controller[*].numApps 1
config **.controller[*].app[0].typename AcpClientApp
config **.sector[*].numApps 1
config **.sector[*].app[0].typename AcpClientApp
config **.aircraft[*].numApps 1
config **.aircraft[*].wlan[*].mgmt.typename Ieee80211MgmtSta
config **.aircraft[*].wlan[*].radio.transmitter.power 1000mW
config **.aircraft[*].wlan[*].radio.displayCommunicationRange true
config **.aircraft[*].wlan[*].radio.channelNumber 0
config **.aircraft[*].wlan[*].agent.defaultSsid "\"\""
config **.aircraft[*].wlan[*].agent.activeScan true
config **.aircraft[*].wlan[*].agent.channelsToScan "\"\""
config **.aircraft[*].wlan[*].agent.probeDelay 0.1s
config **.aircraft[*].wlan[*].agent.minChannelTime 0.15s
config **.aircraft[*].wlan[*].agent.maxChannelTime 0.3s
config **.aircraft[*].wlan[*].agent.startingTime 0.00001s
config **.aircraft[*].wlan[*].agent.associationTimeout 5s
config **.aircraft[*].wlan[*].agent.authenticationTimeout 5s
config **.aircraft[*].app[0].typename AcpClientApp
config **.airport[*].aircraft[*].app[0].nodeName "\"\""
config **.airport[*].aircraft[*].app[0].currentDataAuthorityName "\"airport[*].controller[0]\""
config **.airport[*].aircraft[*].app[0].nextDataAuthorityName "\"\""
config **.airport[*].aircraft[*].app[0].atcAgentName "\"airport[*].atcAgent\""
config **.airport[*].aircraft[*].app[0].atcAgentConnAddr "\"airport[*].atcAgent\""
config **.aircraft[*].mobility.typename LinearMobility
config **.aircraft[*].mobility.initFromDisplayString true
config **.aircraft[*].mobility.speed 30mps
config **.aircraft[*].mobility.updateInterval 100ms
config **.aircraft[*].mobility.initialMovementHeading 360deg
config description "Aeronautical Communication Network"
config *.configurator.dumpAddresses true
config *.configurator.dumpTopology true
config *.configurator.dumpLinks true
config *.configurator.dumpRoutes true
config *.*.ipv4.arp.typename GlobalArp
config *.*.ipv4.routingTable.netmaskRoutes "\"\""
config **.forwarding true
config **.mgmt.numChannels 13
config *.*.wlan[*].bitrate 54Mbps
config **.analogModel.ignorePartialInterference true
config **.wlan[*].mac.headerLength 1B
config **.wlan[*].mgmt.numAuthSteps 4
config **.wlan[*].mac.dcf.channelAccess.cwMin 7
config **.constraintAreaMinX 0m
config **.constraintAreaMinY 0m
config **.constraintAreaMinZ 0m
config **.constraintAreaMaxX 100000m
config **.constraintAreaMaxY 100000m
config **.constraintAreaMaxZ 0m
config **.visualizer.routingTableVisualizer.displayRoutingTables true
config **.visualizer.routingTableVisualizer.destinationFilter "\"*\""
config **.visualizer.routingTableVisualizer.lineShift 0
config **.visualizer.routingTableVisualizer.labelFormat "\"\""
config **.visualizer.ieee80211Visualizer.displayAssociations true
config **.visualizer.mediumVisualizer.displaySignals true
config **.visualizer.mediumVisualizer.displaySignalArrivals false
config **.visualizer.mediumVisualizer.displaySignalDepartures false
config **.visualizer.mediumVisualizer.displayReceptions false
config **.visualizer.mediumVisualizer.displayTransmissions false
config **.visualizer.mediumVisualizer.displayCommunicationRanges true
config **.visualizer.mediumVisualizer.displayInterferenceRanges false
config **.visualizer.physicalLinkVisualizer.displayLinks true
config **.visualizer.networkRouteVisualizer.displayRoutes true
config **.visualizer.networkRouteVisualizer.packetFilter "\"LOGON\""
config **.visualizer.networkRouteVisualizer.fadeOutMode "\"simulationTime\""
config **.visualizer.networkRouteVisualizer.fadeOutTime 5s
config **.visualizer.pathVisualizer.displayRoutes true
config **.visualizer.pathVisualizer.fadeOutTime 3s
config **.visualizer.dataLinkVisualizer.displayLinks true
config **.visualizer.dataLinkVisualizer.fadeOutMode "\"simulationTime\""
config **.visualizer.dataLinkVisualizer.fadeOutTime 1.4s
config **.visualizer.dataLinkVisualizer.packetFilter "\"LOGON\""
config **.visualizer.dataLinkVisualizer.nodeFilter "\"*\""
config **.visualizer.interfaceTableVisualizer.displayInterfaceTables true
config **.visualizer.interfaceTableVisualizer.nodeFilter "\"*\""
config **.visualizer.interfaceTableVisualizer.interfaceFilter "\"not lo* and not ipv4Address =~ '<unspec>'\""
config **.visualizer.mobilityVisualizer.animationSpeed 1
config **.visualizer.mobilityVisualizer.displayMovementTrails true
config **.visualizer.mobilityVisualizer.trailLength 50
config **.visualizer.mobilityVisualizer.displayVelocities true
config **.visualizer.mobilityVisualizer.displayOrientations true
config **.visualizer.transportConnectionVisualizer.displayTransportConnections true
config **.visualizer.transportConnectionVisualizer.destinationPortFilter "\"1000\""
config **.visualizer.transportConnectionVisualizer.placementHint "\"topCenter\""
config **.visualizer.transportRouteVisualizer.displayRoutes true
config **.visualizer.transportRouteVisualizer.fadeOutMode "\"simulationTime\""
config **.visualizer.transportRouteVisualizer.fadeOutTime 1.2s
config **.visualizer.transportRouteVisualizer.packetFilter "\"LOGON\""
config **.visualizer.transportRouteVisualizer.nodeFilter "\"*\""
config **.visualizer.packetDropVisualizer.displayPacketDrops false
config **.visualizer.packetDropVisualizer.labelFormat "\"name:%n /reason: %r/class:%c\""
config **.visualizer.packetDropVisualizer.fadeOutTime 3s

vector 0 AeroCommNetwork.internet.ppp[0].ppp transmissionState:vector ETV
attr interpolationmode sample-hold
attr recordingmode vector
attr source transmissionStateChanged
attr title "tx state"
vector 1 AeroCommNetwork.internet.ppp[1].ppp transmissionState:vector ETV
attr interpolationmode sample-hold
attr recordingmode vector
attr source transmissionStateChanged
attr title "tx state"
vector 2 AeroCommNetwork.internet.ppp[2].ppp transmissionState:vector ETV
attr interpolationmode sample-hold
attr recordingmode vector
attr source transmissionStateChanged
attr title "tx state"
vector 3 AeroCommNetwork.internet.ppp[3].ppp transmissionState:vector ETV
attr interpolationmode sample-hold
attr recordingmode vector
attr source transmissionStateChanged
attr title "tx state"
vector 4 AeroCommNetwork.internet.ppp[4].ppp transmissionState:vector ETV
attr interpolationmode sample-hold
attr recordingmode vector
attr source transmissionStateChanged
attr title "tx state"
vector 5 AeroCommNetwork.internet.ppp[5].ppp transmissionState:vector ETV
attr interpolationmode sample-hold
attr recordingmode vector
attr source transmissionStateChanged
attr title "tx state"
vector 6 AeroCommNetwork.africa.backboneRouter.ppp[0].ppp transmissionState:vector ETV
attr interpolationmode sample-hold
attr recordingmode vector
attr source transmissionStateChanged
attr title "tx state"
vector 7 AeroCommNetwork.africa.backboneRouter.ppp[1].ppp transmissionState:vector ETV
attr interpolationmode sample-hold
attr recordingmode vector
attr source transmissionStateChanged
attr title "tx state"
vector 8 AeroCommNetwork.africa.backboneRouter.ppp[2].ppp transmissionState:vector ETV
attr interpolationmode sample-hold
attr recordingmode vector
attr source transmissionStateChanged
attr title "tx state"
vector 9 AeroCommNetwork.africa.AtcFir[0].FirRouter.ppp[0].ppp transmissionState:vector ETV
attr interpolationmode sample-hold
attr recordingmode vector
attr source transmissionStateChanged
attr title "tx state"
vector 10 AeroCommNetwork.africa.AtcFir[0].FirRouter.ppp[1].ppp transmissionState:vector ETV
attr interpolationmode sample-hold
attr recordingmode vector
attr source transmissionStateChanged
attr title "tx state"
vector 11 AeroCommNetwork.africa.AtcFir[0].FirRouter.ppp[2].ppp transmissionState:vector ETV
attr interpolationmode sample-hold
attr recordingmode vector
attr source transmissionStateChanged
attr title "tx state"
vector 12 AeroCommNetwork.africa.AtcFir[0].AtcArea[0].airport[0].controller[0].udp passedUpPk:vector(count) ETV
attr interpolationmode none
attr recordingmode vector(count)
attr source packetSentToUpper
attr title "packets passed up, count"
vector 13 AeroCommNetwork.africa.AtcFir[0].AtcArea[0].airport[0].controller[0].udp droppedPkWrongPort:vector(count) ETV
attr interpolationmode none
attr recordingmode vector(count)
attr source packetDropReasonIsNoPortFound(packetDropped)
attr title "packets dropped (wrong port), count"
vector 14 AeroCommNetwork.africa.AtcFir[0].AtcArea[0].airport[0].controller[0].udp droppedPkBadChecksum:vector(count) ETV
attr interpolationmode none
attr recordingmode vector(count)
attr source packetDropReasonIsIncorrectlyReceived(packetDropped)
attr title "packets dropped (checksum error), count"
vector 15 AeroCommNetwork.africa.AtcFir[0].AtcArea[0].airport[0].controller[1].udp passedUpPk:vector(count) ETV
attr interpolationmode none
attr recordingmode vector(count)
attr source packetSentToUpper
attr title "packets passed up, count"
vector 16 AeroCommNetwork.africa.AtcFir[0].AtcArea[0].airport[0].controller[1].udp droppedPkWrongPort:vector(count) ETV
attr interpolationmode none
attr recordingmode vector(count)
attr source packetDropReasonIsNoPortFound(packetDropped)
attr title "packets dropped (wrong port), count"
vector 17 AeroCommNetwork.africa.AtcFir[0].AtcArea[0].airport[0].controller[1].udp droppedPkBadChecksum:vector(count) ETV
attr interpolationmode none
attr recordingmode vector(count)
attr source packetDropReasonIsIncorrectlyReceived(packetDropped)
attr title "packets dropped (checksum error), count"
vector 18 AeroCommNetwork.africa.AtcFir[0].AtcArea[0].airport[0].aircraft[0].wlan[0].mac.dcf frameSequenceActive:vector ETV
attr autoWarmupFilter false
attr interpolationmode sample-hold
attr recordingmode vector
attr source warmup(count(frameSequenceStarted)-count(frameSequenceFinished))
attr title "frame sequence active"
vector 19 AeroCommNetwork.africa.AtcFir[0].AtcArea[0].airport[0].aircraft[0].wlan[0].mac.dcf.channelAccess.inProgressFrames queueLength:vector ETV
attr autoWarmupFilter false
attr interpolationmode sample-hold
attr recordingmode vector
attr source "warmup(count(packetEnqueued) - count(packetDequeued))"
attr title "queue length"
vector 20 AeroCommNetwork.africa.AtcFir[0].AtcArea[0].airport[0].aircraft[0].wlan[0].mac.dcf.channelAccess.contention backoffActive:vector ETV
attr autoWarmupFilter false
attr interpolationmode sample-hold
attr recordingmode vector
attr source warmup(count(backoffStarted)-count(backoffStopped))
attr title "backoff active"
vector 21 AeroCommNetwork.africa.AtcFir[0].AtcArea[0].airport[0].aircraft[0].udp passedUpPk:vector(count) ETV
attr interpolationmode none
attr recordingmode vector(count)
attr source packetSentToUpper
attr title "packets passed up, count"
vector 22 AeroCommNetwork.africa.AtcFir[0].AtcArea[0].airport[0].aircraft[0].udp droppedPkWrongPort:vector(count) ETV
attr interpolationmode none
attr recordingmode vector(count)
attr source packetDropReasonIsNoPortFound(packetDropped)
attr title "packets dropped (wrong port), count"
vector 23 AeroCommNetwork.africa.AtcFir[0].AtcArea[0].airport[0].aircraft[0].udp droppedPkBadChecksum:vector(count) ETV
attr interpolationmode none
attr recordingmode vector(count)
attr source packetDropReasonIsIncorrectlyReceived(packetDropped)
attr title "packets dropped (checksum error), count"
vector 24 AeroCommNetwork.africa.AtcFir[0].AtcArea[0].airport[0].airportRouter.ppp[0].ppp transmissionState:vector ETV
attr interpolationmode sample-hold
attr recordingmode vector
attr source transmissionStateChanged
attr title "tx state"
vector 25 AeroCommNetwork.africa.AtcFir[0].AtcArea[0].airport[0].atmAccessPoint.wlan[0].mac.dcf frameSequenceActive:vector ETV
attr autoWarmupFilter false
attr interpolationmode sample-hold
attr recordingmode vector
attr source warmup(count(frameSequenceStarted)-count(frameSequenceFinished))
attr title "frame sequence active"
vector 26 AeroCommNetwork.africa.AtcFir[0].AtcArea[0].airport[0].atmAccessPoint.wlan[0].mac.dcf.channelAccess.inProgressFrames queueLength:vector ETV
attr autoWarmupFilter false
attr interpolationmode sample-hold
attr recordingmode vector
attr source "warmup(count(packetEnqueued) - count(packetDequeued))"
attr title "queue length"
vector 27 AeroCommNetwork.africa.AtcFir[0].AtcArea[0].airport[0].atmAccessPoint.wlan[0].mac.dcf.channelAccess.contention backoffActive:vector ETV
attr autoWarmupFilter false
attr interpolationmode sample-hold
attr recordingmode vector
attr source warmup(count(backoffStarted)-count(backoffStopped))
attr title "backoff active"
vector 28 AeroCommNetwork.africa.AtcFir[0].AtcArea[0].airport[1].controller[0].udp passedUpPk:vector(count) ETV
attr interpolationmode none
attr recordingmode vector(count)
attr source packetSentToUpper
attr title "packets passed up, count"
vector 29 AeroCommNetwork.africa.AtcFir[0].AtcArea[0].airport[1].controller[0].udp droppedPkWrongPort:vector(count) ETV
attr interpolationmode none
attr recordingmode vector(count)
attr source packetDropReasonIsNoPortFound(packetDropped)
attr title "packets dropped (wrong port), count"
vector 30 AeroCommNetwork.africa.AtcFir[0].AtcArea[0].airport[1].controller[0].udp droppedPkBadChecksum:vector(count) ETV
attr interpolationmode none
attr recordingmode vector(count)
attr source packetDropReasonIsIncorrectlyReceived(packetDropped)
attr title "packets dropped (checksum error), count"
vector 31 AeroCommNetwork.africa.AtcFir[0].AtcArea[0].airport[1].controller[1].udp passedUpPk:vector(count) ETV
attr interpolationmode none
attr recordingmode vector(count)
attr source packetSentToUpper
attr title "packets passed up, count"
vector 32 AeroCommNetwork.africa.AtcFir[0].AtcArea[0].airport[1].controller[1].udp droppedPkWrongPort:vector(count) ETV
attr interpolationmode none
attr recordingmode vector(count)
attr source packetDropReasonIsNoPortFound(packetDropped)
attr title "packets dropped (wrong port), count"
vector 33 AeroCommNetwork.africa.AtcFir[0].AtcArea[0].airport[1].controller[1].udp droppedPkBadChecksum:vector(count) ETV
attr interpolationmode none
attr recordingmode vector(count)
attr source packetDropReasonIsIncorrectlyReceived(packetDropped)
attr title "packets dropped (checksum error), count"
vector 34 AeroCommNetwork.africa.AtcFir[0].AtcArea[0].airport[1].aircraft[0].wlan[0].mac.dcf frameSequenceActive:vector ETV
attr autoWarmupFilter false
attr interpolationmode sample-hold
attr recordingmode vector
attr source warmup(count(frameSequenceStarted)-count(frameSequenceFinished))
attr title "frame sequence active"
vector 35 AeroCommNetwork.africa.AtcFir[0].AtcArea[0].airport[1].aircraft[0].wlan[0].mac.dcf.channelAccess.inProgressFrames queueLength:vector ETV
attr autoWarmupFilter false
attr interpolationmode sample-hold
attr recordingmode vector
attr source "warmup(count(packetEnqueued) - count(packetDequeued))"
attr title "queue length"
vector 36 AeroCommNetwork.africa.AtcFir[0].AtcArea[0].airport[1].aircraft[0].wlan[0].mac.dcf.channelAccess.contention backoffActive:vector ETV
attr autoWarmupFilter false
attr interpolationmode sample-hold
attr recordingmode vector
attr source warmup(count(backoffStarted)-count(backoffStopped))
attr title "backoff active"
vector 37 AeroCommNetwork.africa.AtcFir[0].AtcArea[0].airport[1].aircraft[0].udp passedUpPk:vector(count) ETV
attr interpolationmode none
attr recordingmode vector(count)
attr source packetSentToUpper
attr title "packets passed up, count"
vector 38 AeroCommNetwork.africa.AtcFir[0].AtcArea[0].airport[1].aircraft[0].udp droppedPkWrongPort:vector(count) ETV
attr interpolationmode none
attr recordingmode vector(count)
attr source packetDropReasonIsNoPortFound(packetDropped)
attr title "packets dropped (wrong port), count"
vector 39 AeroCommNetwork.africa.AtcFir[0].AtcArea[0].airport[1].aircraft[0].udp droppedPkBadChecksum:vector(count) ETV
attr interpolationmode none
attr recordingmode vector(count)
attr source packetDropReasonIsIncorrectlyReceived(packetDropped)
attr title "packets dropped (checksum error), count"
vector 40 AeroCommNetwork.africa.AtcFir[0].AtcArea[0].airport[1].airportRouter.ppp[0].ppp transmissionState:vector ETV
attr interpolationmode sample-hold
attr recordingmode vector
attr source transmissionStateChanged
attr title "tx state"
vector 41 AeroCommNetwork.africa.AtcFir[0].AtcArea[0].airport[1].atmAccessPoint.wlan[0].mac.dcf frameSequenceActive:vector ETV
attr autoWarmupFilter false
attr interpolationmode sample-hold
attr recordingmode vector
attr source warmup(count(frameSequenceStarted)-count(frameSequenceFinished))
attr title "frame sequence active"
vector 42 AeroCommNetwork.africa.AtcFir[0].AtcArea[0].airport[1].atmAccessPoint.wlan[0].mac.dcf.channelAccess.inProgressFrames queueLength:vector ETV
attr autoWarmupFilter false
attr interpolationmode sample-hold
attr recordingmode vector
attr source "warmup(count(packetEnqueued) - count(packetDequeued))"
attr title "queue length"
vector 43 AeroCommNetwork.africa.AtcFir[0].AtcArea[0].airport[1].atmAccessPoint.wlan[0].mac.dcf.channelAccess.contention backoffActive:vector ETV
attr autoWarmupFilter false
attr interpolationmode sample-hold
attr recordingmode vector
attr source warmup(count(backoffStarted)-count(backoffStopped))
attr title "backoff active"
vector 44 AeroCommNetwork.africa.AtcFir[0].AtcArea[0].sector[0].ppp[0].ppp transmissionState:vector ETV
attr interpolationmode sample-hold
attr recordingmode vector
attr source transmissionStateChanged
attr title "tx state"
vector 45 AeroCommNetwork.africa.AtcFir[0].AtcArea[0].sector[0].udp passedUpPk:vector(count) ETV
attr interpolationmode none
attr recordingmode vector(count)
attr source packetSentToUpper
attr title "packets passed up, count"
vector 46 AeroCommNetwork.africa.AtcFir[0].AtcArea[0].sector[0].udp droppedPkWrongPort:vector(count) ETV
attr interpolationmode none
attr recordingmode vector(count)
attr source packetDropReasonIsNoPortFound(packetDropped)
attr title "packets dropped (wrong port), count"
vector 47 AeroCommNetwork.africa.AtcFir[0].AtcArea[0].sector[0].udp droppedPkBadChecksum:vector(count) ETV
attr interpolationmode none
attr recordingmode vector(count)
attr source packetDropReasonIsIncorrectlyReceived(packetDropped)
attr title "packets dropped (checksum error), count"
vector 48 AeroCommNetwork.africa.AtcFir[0].AtcArea[0].sector[1].ppp[0].ppp transmissionState:vector ETV
attr interpolationmode sample-hold
attr recordingmode vector
attr source transmissionStateChanged
attr title "tx state"
vector 49 AeroCommNetwork.africa.AtcFir[0].AtcArea[0].sector[1].udp passedUpPk:vector(count) ETV
attr interpolationmode none
attr recordingmode vector(count)
attr source packetSentToUpper
attr title "packets passed up, count"
vector 50 AeroCommNetwork.africa.AtcFir[0].AtcArea[0].sector[1].udp droppedPkWrongPort:vector(count) ETV
attr interpolationmode none
attr recordingmode vector(count)
attr source packetDropReasonIsNoPortFound(packetDropped)
attr title "packets dropped (wrong port), count"
vector 51 AeroCommNetwork.africa.AtcFir[0].AtcArea[0].sector[1].udp droppedPkBadChecksum:vector(count) ETV
attr interpolationmode none
attr recordingmode vector(count)
attr source packetDropReasonIsIncorrectlyReceived(packetDropped)
attr title "packets dropped (checksum error), count"
vector 52 AeroCommNetwork.africa.AtcFir[0].AtcArea[0].atcAgent.udp passedUpPk:vector(count) ETV
attr interpolationmode none
attr recordingmode vector(count)
attr source packetSentToUpper
attr title "packets passed up, count"
vector 53 AeroCommNetwork.africa.AtcFir[0].AtcArea[0].atcAgent.udp droppedPkWrongPort:vector(count) ETV
attr interpolationmode none
attr recordingmode vector(count)
attr source packetDropReasonIsNoPortFound(packetDropped)
attr title "packets dropped (wrong port), count"
vector 54 AeroCommNetwork.africa.AtcFir[0].AtcArea[0].atcAgent.udp droppedPkBadChecksum:vector(count) ETV
attr interpolationmode none
attr recordingmode vector(count)
attr source packetDropReasonIsIncorrectlyReceived(packetDropped)
attr title "packets dropped (checksum error), count"
vector 55 AeroCommNetwork.africa.AtcFir[0].AtcArea[0].areaRouter.ppp[0].ppp transmissionState:vector ETV
attr interpolationmode sample-hold
attr recordingmode vector
attr source transmissionStateChanged
attr title "tx state"
vector 56 AeroCommNetwork.africa.AtcFir[0].AtcArea[0].areaRouter.ppp[1].ppp transmissionState:vector ETV
attr interpolationmode sample-hold
attr recordingmode vector
attr source transmissionStateChanged
attr title "tx state"
vector 57 AeroCommNetwork.africa.AtcFir[0].AtcArea[0].areaRouter.ppp[2].ppp transmissionState:vector ETV
attr interpolationmode sample-hold
attr recordingmode vector
attr source transmissionStateChanged
attr title "tx state"
vector 58 AeroCommNetwork.africa.AtcFir[0].AtcArea[1].airport[0].controller[0].udp passedUpPk:vector(count) ETV
attr interpolationmode none
attr recordingmode vector(count)
attr source packetSentToUpper
attr title "packets passed up, count"
vector 59 AeroCommNetwork.africa.AtcFir[0].AtcArea[1].airport[0].controller[0].udp droppedPkWrongPort:vector(count) ETV
attr interpolationmode none
attr recordingmode vector(count)
attr source packetDropReasonIsNoPortFound(packetDropped)
attr title "packets dropped (wrong port), count"
vector 60 AeroCommNetwork.africa.AtcFir[0].AtcArea[1].airport[0].controller[0].udp droppedPkBadChecksum:vector(count) ETV
attr interpolationmode none
attr recordingmode vector(count)
attr source packetDropReasonIsIncorrectlyReceived(packetDropped)
attr title "packets dropped (checksum error), count"
vector 61 AeroCommNetwork.africa.AtcFir[0].AtcArea[1].airport[0].controller[1].udp passedUpPk:vector(count) ETV
attr interpolationmode none
attr recordingmode vector(count)
attr source packetSentToUpper
attr title "packets passed up, count"
vector 62 AeroCommNetwork.africa.AtcFir[0].AtcArea[1].airport[0].controller[1].udp droppedPkWrongPort:vector(count) ETV
attr interpolationmode none
attr recordingmode vector(count)
attr source packetDropReasonIsNoPortFound(packetDropped)
attr title "packets dropped (wrong port), count"
vector 63 AeroCommNetwork.africa.AtcFir[0].AtcArea[1].airport[0].controller[1].udp droppedPkBadChecksum:vector(count) ETV
attr interpolationmode none
attr recordingmode vector(count)
attr source packetDropReasonIsIncorrectlyReceived(packetDropped)
attr title "packets dropped (checksum error), count"
vector 64 AeroCommNetwork.africa.AtcFir[0].AtcArea[1].airport[0].aircraft[0].wlan[0].mac.dcf frameSequenceActive:vector ETV
attr autoWarmupFilter false
attr interpolationmode sample-hold
attr recordingmode vector
attr source warmup(count(frameSequenceStarted)-count(frameSequenceFinished))
attr title "frame sequence active"
vector 65 AeroCommNetwork.africa.AtcFir[0].AtcArea[1].airport[0].aircraft[0].wlan[0].mac.dcf.channelAccess.inProgressFrames queueLength:vector ETV
attr autoWarmupFilter false
attr interpolationmode sample-hold
attr recordingmode vector
attr source "warmup(count(packetEnqueued) - count(packetDequeued))"
attr title "queue length"
vector 66 AeroCommNetwork.africa.AtcFir[0].AtcArea[1].airport[0].aircraft[0].wlan[0].mac.dcf.channelAccess.contention backoffActive:vector ETV
attr autoWarmupFilter false
attr interpolationmode sample-hold
attr recordingmode vector
attr source warmup(count(backoffStarted)-count(backoffStopped))
attr title "backoff active"
vector 67 AeroCommNetwork.africa.AtcFir[0].AtcArea[1].airport[0].aircraft[0].udp passedUpPk:vector(count) ETV
attr interpolationmode none
attr recordingmode vector(count)
attr source packetSentToUpper
attr title "packets passed up, count"
vector 68 AeroCommNetwork.africa.AtcFir[0].AtcArea[1].airport[0].aircraft[0].udp droppedPkWrongPort:vector(count) ETV
attr interpolationmode none
attr recordingmode vector(count)
attr source packetDropReasonIsNoPortFound(packetDropped)
attr title "packets dropped (wrong port), count"
vector 69 AeroCommNetwork.africa.AtcFir[0].AtcArea[1].airport[0].aircraft[0].udp droppedPkBadChecksum:vector(count) ETV
attr interpolationmode none
attr recordingmode vector(count)
attr source packetDropReasonIsIncorrectlyReceived(packetDropped)
attr title "packets dropped (checksum error), count"
vector 70 AeroCommNetwork.africa.AtcFir[0].AtcArea[1].airport[0].airportRouter.ppp[0].ppp transmissionState:vector ETV
attr interpolationmode sample-hold
attr recordingmode vector
attr source transmissionStateChanged
attr title "tx state"
vector 71 AeroCommNetwork.africa.AtcFir[0].AtcArea[1].airport[0].atmAccessPoint.wlan[0].mac.dcf frameSequenceActive:vector ETV
attr autoWarmupFilter false
attr interpolationmode sample-hold
attr recordingmode vector
attr source warmup(count(frameSequenceStarted)-count(frameSequenceFinished))
attr title "frame sequence active"
vector 72 AeroCommNetwork.africa.AtcFir[0].AtcArea[1].airport[0].atmAccessPoint.wlan[0].mac.dcf.channelAccess.inProgressFrames queueLength:vector ETV
attr autoWarmupFilter false
attr interpolationmode sample-hold
attr recordingmode vector
attr source "warmup(count(packetEnqueued) - count(packetDequeued))"
attr title "queue length"
vector 73 AeroCommNetwork.africa.AtcFir[0].AtcArea[1].airport[0].atmAccessPoint.wlan[0].mac.dcf.channelAccess.contention backoffActive:vector ETV
attr autoWarmupFilter false
attr interpolationmode sample-hold
attr recordingmode vector
attr source warmup(count(backoffStarted)-count(backoffStopped))
attr title "backoff active"
vector 74 AeroCommNetwork.africa.AtcFir[0].AtcArea[1].airport[1].controller[0].udp passedUpPk:vector(count) ETV
attr interpolationmode none
attr recordingmode vector(count)
attr source packetSentToUpper
attr title "packets passed up, count"
vector 75 AeroCommNetwork.africa.AtcFir[0].AtcArea[1].airport[1].controller[0].udp droppedPkWrongPort:vector(count) ETV
attr interpolationmode none
attr recordingmode vector(count)
attr source packetDropReasonIsNoPortFound(packetDropped)
attr title "packets dropped (wrong port), count"
vector 76 AeroCommNetwork.africa.AtcFir[0].AtcArea[1].airport[1].controller[0].udp droppedPkBadChecksum:vector(count) ETV
attr interpolationmode none
attr recordingmode vector(count)
attr source packetDropReasonIsIncorrectlyReceived(packetDropped)
attr title "packets dropped (checksum error), count"
vector 77 AeroCommNetwork.africa.AtcFir[0].AtcArea[1].airport[1].controller[1].udp passedUpPk:vector(count) ETV
attr interpolationmode none
attr recordingmode vector(count)
attr source packetSentToUpper
attr title "packets passed up, count"
vector 78 AeroCommNetwork.africa.AtcFir[0].AtcArea[1].airport[1].controller[1].udp droppedPkWrongPort:vector(count) ETV
attr interpolationmode none
attr recordingmode vector(count)
attr source packetDropReasonIsNoPortFound(packetDropped)
attr title "packets dropped (wrong port), count"
vector 79 AeroCommNetwork.africa.AtcFir[0].AtcArea[1].airport[1].controller[1].udp droppedPkBadChecksum:vector(count) ETV
attr interpolationmode none
attr recordingmode vector(count)
attr source packetDropReasonIsIncorrectlyReceived(packetDropped)
attr title "packets dropped (checksum error), count"
vector 80 AeroCommNetwork.africa.AtcFir[0].AtcArea[1].airport[1].aircraft[0].wlan[0].mac.dcf frameSequenceActive:vector ETV
attr autoWarmupFilter false
attr interpolationmode sample-hold
attr recordingmode vector
attr source warmup(count(frameSequenceStarted)-count(frameSequenceFinished))
attr title "frame sequence active"
vector 81 AeroCommNetwork.africa.AtcFir[0].AtcArea[1].airport[1].aircraft[0].wlan[0].mac.dcf.channelAccess.inProgressFrames queueLength:vector ETV
attr autoWarmupFilter false
attr interpolationmode sample-hold
attr recordingmode vector
attr source "warmup(count(packetEnqueued) - count(packetDequeued))"
attr title "queue length"
vector 82 AeroCommNetwork.africa.AtcFir[0].AtcArea[1].airport[1].aircraft[0].wlan[0].mac.dcf.channelAccess.contention backoffActive:vector ETV
attr autoWarmupFilter false
attr interpolationmode sample-hold
attr recordingmode vector
attr source warmup(count(backoffStarted)-count(backoffStopped))
attr title "backoff active"
vector 83 AeroCommNetwork.africa.AtcFir[0].AtcArea[1].airport[1].aircraft[0].udp passedUpPk:vector(count) ETV
attr interpolationmode none
attr recordingmode vector(count)
attr source packetSentToUpper
attr title "packets passed up, count"
vector 84 AeroCommNetwork.africa.AtcFir[0].AtcArea[1].airport[1].aircraft[0].udp droppedPkWrongPort:vector(count) ETV
attr interpolationmode none
attr recordingmode vector(count)
attr source packetDropReasonIsNoPortFound(packetDropped)
attr title "packets dropped (wrong port), count"
vector 85 AeroCommNetwork.africa.AtcFir[0].AtcArea[1].airport[1].aircraft[0].udp droppedPkBadChecksum:vector(count) ETV
attr interpolationmode none
attr recordingmode vector(count)
attr source packetDropReasonIsIncorrectlyReceived(packetDropped)
attr title "packets dropped (checksum error), count"
vector 86 AeroCommNetwork.africa.AtcFir[0].AtcArea[1].airport[1].airportRouter.ppp[0].ppp transmissionState:vector ETV
attr interpolationmode sample-hold
attr recordingmode vector
attr source transmissionStateChanged
attr title "tx state"
vector 87 AeroCommNetwork.africa.AtcFir[0].AtcArea[1].airport[1].atmAccessPoint.wlan[0].mac.dcf frameSequenceActive:vector ETV
attr autoWarmupFilter false
attr interpolationmode sample-hold
attr recordingmode vector
attr source warmup(count(frameSequenceStarted)-count(frameSequenceFinished))
attr title "frame sequence active"
vector 88 AeroCommNetwork.africa.AtcFir[0].AtcArea[1].airport[1].atmAccessPoint.wlan[0].mac.dcf.channelAccess.inProgressFrames queueLength:vector ETV
attr autoWarmupFilter false
attr interpolationmode sample-hold
attr recordingmode vector
attr source "warmup(count(packetEnqueued) - count(packetDequeued))"
attr title "queue length"
vector 89 AeroCommNetwork.africa.AtcFir[0].AtcArea[1].airport[1].atmAccessPoint.wlan[0].mac.dcf.channelAccess.contention backoffActive:vector ETV
attr autoWarmupFilter false
attr interpolationmode sample-hold
attr recordingmode vector
attr source warmup(count(backoffStarted)-count(backoffStopped))
attr title "backoff active"
vector 90 AeroCommNetwork.africa.AtcFir[0].AtcArea[1].sector[0].ppp[0].ppp transmissionState:vector ETV
attr interpolationmode sample-hold
attr recordingmode vector
attr source transmissionStateChanged
attr title "tx state"
vector 91 AeroCommNetwork.africa.AtcFir[0].AtcArea[1].sector[0].udp passedUpPk:vector(count) ETV
attr interpolationmode none
attr recordingmode vector(count)
attr source packetSentToUpper
attr title "packets passed up, count"
vector 92 AeroCommNetwork.africa.AtcFir[0].AtcArea[1].sector[0].udp droppedPkWrongPort:vector(count) ETV
attr interpolationmode none
attr recordingmode vector(count)
attr source packetDropReasonIsNoPortFound(packetDropped)
attr title "packets dropped (wrong port), count"
vector 93 AeroCommNetwork.africa.AtcFir[0].AtcArea[1].sector[0].udp droppedPkBadChecksum:vector(count) ETV
attr interpolationmode none
attr recordingmode vector(count)
attr source packetDropReasonIsIncorrectlyReceived(packetDropped)
attr title "packets dropped (checksum error), count"
vector 94 AeroCommNetwork.africa.AtcFir[0].AtcArea[1].sector[1].ppp[0].ppp transmissionState:vector ETV
attr interpolationmode sample-hold
attr recordingmode vector
attr source transmissionStateChanged
attr title "tx state"
vector 95 AeroCommNetwork.africa.AtcFir[0].AtcArea[1].sector[1].udp passedUpPk:vector(count) ETV
attr interpolationmode none
attr recordingmode vector(count)
attr source packetSentToUpper
attr title "packets passed up, count"
vector 96 AeroCommNetwork.africa.AtcFir[0].AtcArea[1].sector[1].udp droppedPkWrongPort:vector(count) ETV
attr interpolationmode none
attr recordingmode vector(count)
attr source packetDropReasonIsNoPortFound(packetDropped)
attr title "packets dropped (wrong port), count"
vector 97 AeroCommNetwork.africa.AtcFir[0].AtcArea[1].sector[1].udp droppedPkBadChecksum:vector(count) ETV
attr interpolationmode none
attr recordingmode vector(count)
attr source packetDropReasonIsIncorrectlyReceived(packetDropped)
attr title "packets dropped (checksum error), count"
vector 98 AeroCommNetwork.africa.AtcFir[0].AtcArea[1].atcAgent.udp passedUpPk:vector(count) ETV
attr interpolationmode none
attr recordingmode vector(count)
attr source packetSentToUpper
attr title "packets passed up, count"
vector 99 AeroCommNetwork.africa.AtcFir[0].AtcArea[1].atcAgent.udp droppedPkWrongPort:vector(count) ETV
attr interpolationmode none
attr recordingmode vector(count)
attr source packetDropReasonIsNoPortFound(packetDropped)
attr title "packets dropped (wrong port), count"
vector 100 AeroCommNetwork.africa.AtcFir[0].AtcArea[1].atcAgent.udp droppedPkBadChecksum:vector(count) ETV
attr interpolationmode none
attr recordingmode vector(count)
attr source packetDropReasonIsIncorrectlyReceived(packetDropped)
attr title "packets dropped (checksum error), count"
vector 101 AeroCommNetwork.africa.AtcFir[0].AtcArea[1].areaRouter.ppp[0].ppp transmissionState:vector ETV
attr interpolationmode sample-hold
attr recordingmode vector
attr source transmissionStateChanged
attr title "tx state"
vector 102 AeroCommNetwork.africa.AtcFir[0].AtcArea[1].areaRouter.ppp[1].ppp transmissionState:vector ETV
attr interpolationmode sample-hold
attr recordingmode vector
attr source transmissionStateChanged
attr title "tx state"
vector 103 AeroCommNetwork.africa.AtcFir[0].AtcArea[1].areaRouter.ppp[2].ppp transmissionState:vector ETV
attr interpolationmode sample-hold
attr recordingmode vector
attr source transmissionStateChanged
attr title "tx state"
vector 104 AeroCommNetwork.africa.AtcFir[1].FirRouter.ppp[0].ppp transmissionState:vector ETV
attr interpolationmode sample-hold
attr recordingmode vector
attr source transmissionStateChanged
attr title "tx state"
vector 105 AeroCommNetwork.africa.AtcFir[1].FirRouter.ppp[1].ppp transmissionState:vector ETV
attr interpolationmode sample-hold
attr recordingmode vector
attr source transmissionStateChanged
attr title "tx state"
vector 106 AeroCommNetwork.africa.AtcFir[1].FirRouter.ppp[2].ppp transmissionState:vector ETV
attr interpolationmode sample-hold
attr recordingmode vector
attr source transmissionStateChanged
attr title "tx state"
vector 107 AeroCommNetwork.africa.AtcFir[1].AtcArea[0].airport[0].controller[0].udp passedUpPk:vector(count) ETV
attr interpolationmode none
attr recordingmode vector(count)
attr source packetSentToUpper
attr title "packets passed up, count"
vector 108 AeroCommNetwork.africa.AtcFir[1].AtcArea[0].airport[0].controller[0].udp droppedPkWrongPort:vector(count) ETV
attr interpolationmode none
attr recordingmode vector(count)
attr source packetDropReasonIsNoPortFound(packetDropped)
attr title "packets dropped (wrong port), count"
vector 109 AeroCommNetwork.africa.AtcFir[1].AtcArea[0].airport[0].controller[0].udp droppedPkBadChecksum:vector(count) ETV
attr interpolationmode none
attr recordingmode vector(count)
attr source packetDropReasonIsIncorrectlyReceived(packetDropped)
attr title "packets dropped (checksum error), count"
vector 110 AeroCommNetwork.africa.AtcFir[1].AtcArea[0].airport[0].controller[1].udp passedUpPk:vector(count) ETV
attr interpolationmode none
attr recordingmode vector(count)
attr source packetSentToUpper
attr title "packets passed up, count"
vector 111 AeroCommNetwork.africa.AtcFir[1].AtcArea[0].airport[0].controller[1].udp droppedPkWrongPort:vector(count) ETV
attr interpolationmode none
attr recordingmode vector(count)
attr source packetDropReasonIsNoPortFound(packetDropped)
attr title "packets dropped (wrong port), count"
vector 112 AeroCommNetwork.africa.AtcFir[1].AtcArea[0].airport[0].controller[1].udp droppedPkBadChecksum:vector(count) ETV
attr interpolationmode none
attr recordingmode vector(count)
attr source packetDropReasonIsIncorrectlyReceived(packetDropped)
attr title "packets dropped (checksum error), count"
vector 113 AeroCommNetwork.africa.AtcFir[1].AtcArea[0].airport[0].aircraft[0].wlan[0].mac.dcf frameSequenceActive:vector ETV
attr autoWarmupFilter false
attr interpolationmode sample-hold
attr recordingmode vector
attr source warmup(count(frameSequenceStarted)-count(frameSequenceFinished))
attr title "frame sequence active"
vector 114 AeroCommNetwork.africa.AtcFir[1].AtcArea[0].airport[0].aircraft[0].wlan[0].mac.dcf.channelAccess.inProgressFrames queueLength:vector ETV
attr autoWarmupFilter false
attr interpolationmode sample-hold
attr recordingmode vector
attr source "warmup(count(packetEnqueued) - count(packetDequeued))"
attr title "queue length"
vector 115 AeroCommNetwork.africa.AtcFir[1].AtcArea[0].airport[0].aircraft[0].wlan[0].mac.dcf.channelAccess.contention backoffActive:vector ETV
attr autoWarmupFilter false
attr interpolationmode sample-hold
attr recordingmode vector
attr source warmup(count(backoffStarted)-count(backoffStopped))
attr title "backoff active"
vector 116 AeroCommNetwork.africa.AtcFir[1].AtcArea[0].airport[0].aircraft[0].udp passedUpPk:vector(count) ETV
attr interpolationmode none
attr recordingmode vector(count)
attr source packetSentToUpper
attr title "packets passed up, count"
vector 117 AeroCommNetwork.africa.AtcFir[1].AtcArea[0].airport[0].aircraft[0].udp droppedPkWrongPort:vector(count) ETV
attr interpolationmode none
attr recordingmode vector(count)
attr source packetDropReasonIsNoPortFound(packetDropped)
attr title "packets dropped (wrong port), count"
vector 118 AeroCommNetwork.africa.AtcFir[1].AtcArea[0].airport[0].aircraft[0].udp droppedPkBadChecksum:vector(count) ETV
attr interpolationmode none
attr recordingmode vector(count)
attr source packetDropReasonIsIncorrectlyReceived(packetDropped)
attr title "packets dropped (checksum error), count"
vector 119 AeroCommNetwork.africa.AtcFir[1].AtcArea[0].airport[0].airportRouter.ppp[0].ppp transmissionState:vector ETV
attr interpolationmode sample-hold
attr recordingmode vector
attr source transmissionStateChanged
attr title "tx state"
vector 120 AeroCommNetwork.africa.AtcFir[1].AtcArea[0].airport[0].atmAccessPoint.wlan[0].mac.dcf frameSequenceActive:vector ETV
attr autoWarmupFilter false
attr interpolationmode sample-hold
attr recordingmode vector
attr source warmup(count(frameSequenceStarted)-count(frameSequenceFinished))
attr title "frame sequence active"
vector 121 AeroCommNetwork.africa.AtcFir[1].AtcArea[0].airport[0].atmAccessPoint.wlan[0].mac.dcf.channelAccess.inProgressFrames queueLength:vector ETV
attr autoWarmupFilter false
attr interpolationmode sample-hold
attr recordingmode vector
attr source "warmup(count(packetEnqueued) - count(packetDequeued))"
attr title "queue length"
vector 122 AeroCommNetwork.africa.AtcFir[1].AtcArea[0].airport[0].atmAccessPoint.wlan[0].mac.dcf.channelAccess.contention backoffActive:vector ETV
attr autoWarmupFilter false
attr interpolationmode sample-hold
attr recordingmode vector
attr source warmup(count(backoffStarted)-count(backoffStopped))
attr title "backoff active"
vector 123 AeroCommNetwork.africa.AtcFir[1].AtcArea[0].airport[1].controller[0].udp passedUpPk:vector(count) ETV
attr interpolationmode none
attr recordingmode vector(count)
attr source packetSentToUpper
attr title "packets passed up, count"
vector 124 AeroCommNetwork.africa.AtcFir[1].AtcArea[0].airport[1].controller[0].udp droppedPkWrongPort:vector(count) ETV
attr interpolationmode none
attr recordingmode vector(count)
attr source packetDropReasonIsNoPortFound(packetDropped)
attr title "packets dropped (wrong port), count"
vector 125 AeroCommNetwork.africa.AtcFir[1].AtcArea[0].airport[1].controller[0].udp droppedPkBadChecksum:vector(count) ETV
attr interpolationmode none
attr recordingmode vector(count)
attr source packetDropReasonIsIncorrectlyReceived(packetDropped)
attr title "packets dropped (checksum error), count"
vector 126 AeroCommNetwork.africa.AtcFir[1].AtcArea[0].airport[1].controller[1].udp passedUpPk:vector(count) ETV
attr interpolationmode none
attr recordingmode vector(count)
attr source packetSentToUpper
attr title "packets passed up, count"
vector 127 AeroCommNetwork.africa.AtcFir[1].AtcArea[0].airport[1].controller[1].udp droppedPkWrongPort:vector(count) ETV
attr interpolationmode none
attr recordingmode vector(count)
attr source packetDropReasonIsNoPortFound(packetDropped)
attr title "packets dropped (wrong port), count"
vector 128 AeroCommNetwork.africa.AtcFir[1].AtcArea[0].airport[1].controller[1].udp droppedPkBadChecksum:vector(count) ETV
attr interpolationmode none
attr recordingmode vector(count)
attr source packetDropReasonIsIncorrectlyReceived(packetDropped)
attr title "packets dropped (checksum error), count"
vector 129 AeroCommNetwork.africa.AtcFir[1].AtcArea[0].airport[1].aircraft[0].wlan[0].mac.dcf frameSequenceActive:vector ETV
attr autoWarmupFilter false
attr interpolationmode sample-hold
attr recordingmode vector
attr source warmup(count(frameSequenceStarted)-count(frameSequenceFinished))
attr title "frame sequence active"
vector 130 AeroCommNetwork.africa.AtcFir[1].AtcArea[0].airport[1].aircraft[0].wlan[0].mac.dcf.channelAccess.inProgressFrames queueLength:vector ETV
attr autoWarmupFilter false
attr interpolationmode sample-hold
attr recordingmode vector
attr source "warmup(count(packetEnqueued) - count(packetDequeued))"
attr title "queue length"
vector 131 AeroCommNetwork.africa.AtcFir[1].AtcArea[0].airport[1].aircraft[0].wlan[0].mac.dcf.channelAccess.contention backoffActive:vector ETV
attr autoWarmupFilter false
attr interpolationmode sample-hold
attr recordingmode vector
attr source warmup(count(backoffStarted)-count(backoffStopped))
attr title "backoff active"
vector 132 AeroCommNetwork.africa.AtcFir[1].AtcArea[0].airport[1].aircraft[0].udp passedUpPk:vector(count) ETV
attr interpolationmode none
attr recordingmode vector(count)
attr source packetSentToUpper
attr title "packets passed up, count"
vector 133 AeroCommNetwork.africa.AtcFir[1].AtcArea[0].airport[1].aircraft[0].udp droppedPkWrongPort:vector(count) ETV
attr interpolationmode none
attr recordingmode vector(count)
attr source packetDropReasonIsNoPortFound(packetDropped)
attr title "packets dropped (wrong port), count"
vector 134 AeroCommNetwork.africa.AtcFir[1].AtcArea[0].airport[1].aircraft[0].udp droppedPkBadChecksum:vector(count) ETV
attr interpolationmode none
attr recordingmode vector(count)
attr source packetDropReasonIsIncorrectlyReceived(packetDropped)
attr title "packets dropped (checksum error), count"
vector 135 AeroCommNetwork.africa.AtcFir[1].AtcArea[0].airport[1].airportRouter.ppp[0].ppp transmissionState:vector ETV
attr interpolationmode sample-hold
attr recordingmode vector
attr source transmissionStateChanged
attr title "tx state"
vector 136 AeroCommNetwork.africa.AtcFir[1].AtcArea[0].airport[1].atmAccessPoint.wlan[0].mac.dcf frameSequenceActive:vector ETV
attr autoWarmupFilter false
attr interpolationmode sample-hold
attr recordingmode vector
attr source warmup(count(frameSequenceStarted)-count(frameSequenceFinished))
attr title "frame sequence active"
vector 137 AeroCommNetwork.africa.AtcFir[1].AtcArea[0].airport[1].atmAccessPoint.wlan[0].mac.dcf.channelAccess.inProgressFrames queueLength:vector ETV
attr autoWarmupFilter false
attr interpolationmode sample-hold
attr recordingmode vector
attr source "warmup(count(packetEnqueued) - count(packetDequeued))"
attr title "queue length"
vector 138 AeroCommNetwork.africa.AtcFir[1].AtcArea[0].airport[1].atmAccessPoint.wlan[0].mac.dcf.channelAccess.contention backoffActive:vector ETV
attr autoWarmupFilter false
attr interpolationmode sample-hold
attr recordingmode vector
attr source warmup(count(backoffStarted)-count(backoffStopped))
attr title "backoff active"
vector 139 AeroCommNetwork.africa.AtcFir[1].AtcArea[0].sector[0].ppp[0].ppp transmissionState:vector ETV
attr interpolationmode sample-hold
attr recordingmode vector
attr source transmissionStateChanged
attr title "tx state"
vector 140 AeroCommNetwork.africa.AtcFir[1].AtcArea[0].sector[0].udp passedUpPk:vector(count) ETV
attr interpolationmode none
attr recordingmode vector(count)
attr source packetSentToUpper
attr title "packets passed up, count"
vector 141 AeroCommNetwork.africa.AtcFir[1].AtcArea[0].sector[0].udp droppedPkWrongPort:vector(count) ETV
attr interpolationmode none
attr recordingmode vector(count)
attr source packetDropReasonIsNoPortFound(packetDropped)
attr title "packets dropped (wrong port), count"
vector 142 AeroCommNetwork.africa.AtcFir[1].AtcArea[0].sector[0].udp droppedPkBadChecksum:vector(count) ETV
attr interpolationmode none
attr recordingmode vector(count)
attr source packetDropReasonIsIncorrectlyReceived(packetDropped)
attr title "packets dropped (checksum error), count"
vector 143 AeroCommNetwork.africa.AtcFir[1].AtcArea[0].sector[1].ppp[0].ppp transmissionState:vector ETV
attr interpolationmode sample-hold
attr recordingmode vector
attr source transmissionStateChanged
attr title "tx state"
vector 144 AeroCommNetwork.africa.AtcFir[1].AtcArea[0].sector[1].udp passedUpPk:vector(count) ETV
attr interpolationmode none
attr recordingmode vector(count)
attr source packetSentToUpper
attr title "packets passed up, count"
vector 145 AeroCommNetwork.africa.AtcFir[1].AtcArea[0].sector[1].udp droppedPkWrongPort:vector(count) ETV
attr interpolationmode none
attr recordingmode vector(count)
attr source packetDropReasonIsNoPortFound(packetDropped)
attr title "packets dropped (wrong port), count"
vector 146 AeroCommNetwork.africa.AtcFir[1].AtcArea[0].sector[1].udp droppedPkBadChecksum:vector(count) ETV
attr interpolationmode none
attr recordingmode vector(count)
attr source packetDropReasonIsIncorrectlyReceived(packetDropped)
attr title "packets dropped (checksum error), count"
vector 147 AeroCommNetwork.africa.AtcFir[1].AtcArea[0].atcAgent.udp passedUpPk:vector(count) ETV
attr interpolationmode none
attr recordingmode vector(count)
attr source packetSentToUpper
attr title "packets passed up, count"
vector 148 AeroCommNetwork.africa.AtcFir[1].AtcArea[0].atcAgent.udp droppedPkWrongPort:vector(count) ETV
attr interpolationmode none
attr recordingmode vector(count)
attr source packetDropReasonIsNoPortFound(packetDropped)
attr title "packets dropped (wrong port), count"
vector 149 AeroCommNetwork.africa.AtcFir[1].AtcArea[0].atcAgent.udp droppedPkBadChecksum:vector(count) ETV
attr interpolationmode none
attr recordingmode vector(count)
attr source packetDropReasonIsIncorrectlyReceived(packetDropped)
attr title "packets dropped (checksum error), count"
vector 150 AeroCommNetwork.africa.AtcFir[1].AtcArea[0].areaRouter.ppp[0].ppp transmissionState:vector ETV
attr interpolationmode sample-hold
attr recordingmode vector
attr source transmissionStateChanged
attr title "tx state"
vector 151 AeroCommNetwork.africa.AtcFir[1].AtcArea[0].areaRouter.ppp[1].ppp transmissionState:vector ETV
attr interpolationmode sample-hold
attr recordingmode vector
attr source transmissionStateChanged
attr title "tx state"
vector 152 AeroCommNetwork.africa.AtcFir[1].AtcArea[0].areaRouter.ppp[2].ppp transmissionState:vector ETV
attr interpolationmode sample-hold
attr recordingmode vector
attr source transmissionStateChanged
attr title "tx state"
vector 153 AeroCommNetwork.africa.AtcFir[1].AtcArea[1].airport[0].controller[0].udp passedUpPk:vector(count) ETV
attr interpolationmode none
attr recordingmode vector(count)
attr source packetSentToUpper
attr title "packets passed up, count"
vector 154 AeroCommNetwork.africa.AtcFir[1].AtcArea[1].airport[0].controller[0].udp droppedPkWrongPort:vector(count) ETV
attr interpolationmode none
attr recordingmode vector(count)
attr source packetDropReasonIsNoPortFound(packetDropped)
attr title "packets dropped (wrong port), count"
vector 155 AeroCommNetwork.africa.AtcFir[1].AtcArea[1].airport[0].controller[0].udp droppedPkBadChecksum:vector(count) ETV
attr interpolationmode none
attr recordingmode vector(count)
attr source packetDropReasonIsIncorrectlyReceived(packetDropped)
attr title "packets dropped (checksum error), count"
vector 156 AeroCommNetwork.africa.AtcFir[1].AtcArea[1].airport[0].controller[1].udp passedUpPk:vector(count) ETV
attr interpolationmode none
attr recordingmode vector(count)
attr source packetSentToUpper
attr title "packets passed up, count"
vector 157 AeroCommNetwork.africa.AtcFir[1].AtcArea[1].airport[0].controller[1].udp droppedPkWrongPort:vector(count) ETV
attr interpolationmode none
attr recordingmode vector(count)
attr source packetDropReasonIsNoPortFound(packetDropped)
attr title "packets dropped (wrong port), count"
vector 158 AeroCommNetwork.africa.AtcFir[1].AtcArea[1].airport[0].controller[1].udp droppedPkBadChecksum:vector(count) ETV
attr interpolationmode none
attr recordingmode vector(count)
attr source packetDropReasonIsIncorrectlyReceived(packetDropped)
attr title "packets dropped (checksum error), count"
vector 159 AeroCommNetwork.africa.AtcFir[1].AtcArea[1].airport[0].aircraft[0].wlan[0].mac.dcf frameSequenceActive:vector ETV
attr autoWarmupFilter false
attr interpolationmode sample-hold
attr recordingmode vector
attr source warmup(count(frameSequenceStarted)-count(frameSequenceFinished))
attr title "frame sequence active"
vector 160 AeroCommNetwork.africa.AtcFir[1].AtcArea[1].airport[0].aircraft[0].wlan[0].mac.dcf.channelAccess.inProgressFrames queueLength:vector ETV
attr autoWarmupFilter false
attr interpolationmode sample-hold
attr recordingmode vector
attr source "warmup(count(packetEnqueued) - count(packetDequeued))"
attr title "queue length"
vector 161 AeroCommNetwork.africa.AtcFir[1].AtcArea[1].airport[0].aircraft[0].wlan[0].mac.dcf.channelAccess.contention backoffActive:vector ETV
attr autoWarmupFilter false
attr interpolationmode sample-hold
attr recordingmode vector
attr source warmup(count(backoffStarted)-count(backoffStopped))
attr title "backoff active"
vector 162 AeroCommNetwork.africa.AtcFir[1].AtcArea[1].airport[0].aircraft[0].udp passedUpPk:vector(count) ETV
attr interpolationmode none
attr recordingmode vector(count)
attr source packetSentToUpper
attr title "packets passed up, count"
vector 163 AeroCommNetwork.africa.AtcFir[1].AtcArea[1].airport[0].aircraft[0].udp droppedPkWrongPort:vector(count) ETV
attr interpolationmode none
attr recordingmode vector(count)
attr source packetDropReasonIsNoPortFound(packetDropped)
attr title "packets dropped (wrong port), count"
vector 164 AeroCommNetwork.africa.AtcFir[1].AtcArea[1].airport[0].aircraft[0].udp droppedPkBadChecksum:vector(count) ETV
attr interpolationmode none
attr recordingmode vector(count)
attr source packetDropReasonIsIncorrectlyReceived(packetDropped)
attr title "packets dropped (checksum error), count"
vector 165 AeroCommNetwork.africa.AtcFir[1].AtcArea[1].airport[0].airportRouter.ppp[0].ppp transmissionState:vector ETV
attr interpolationmode sample-hold
attr recordingmode vector
attr source transmissionStateChanged
attr title "tx state"
vector 166 AeroCommNetwork.africa.AtcFir[1].AtcArea[1].airport[0].atmAccessPoint.wlan[0].mac.dcf frameSequenceActive:vector ETV
attr autoWarmupFilter false
attr interpolationmode sample-hold
attr recordingmode vector
attr source warmup(count(frameSequenceStarted)-count(frameSequenceFinished))
attr title "frame sequence active"
vector 167 AeroCommNetwork.africa.AtcFir[1].AtcArea[1].airport[0].atmAccessPoint.wlan[0].mac.dcf.channelAccess.inProgressFrames queueLength:vector ETV
attr autoWarmupFilter false
attr interpolationmode sample-hold
attr recordingmode vector
attr source "warmup(count(packetEnqueued) - count(packetDequeued))"
attr title "queue length"
vector 168 AeroCommNetwork.africa.AtcFir[1].AtcArea[1].airport[0].atmAccessPoint.wlan[0].mac.dcf.channelAccess.contention backoffActive:vector ETV
attr autoWarmupFilter false
attr interpolationmode sample-hold
attr recordingmode vector
attr source warmup(count(backoffStarted)-count(backoffStopped))
attr title "backoff active"
vector 169 AeroCommNetwork.africa.AtcFir[1].AtcArea[1].airport[1].controller[0].udp passedUpPk:vector(count) ETV
attr interpolationmode none
attr recordingmode vector(count)
attr source packetSentToUpper
attr title "packets passed up, count"
vector 170 AeroCommNetwork.africa.AtcFir[1].AtcArea[1].airport[1].controller[0].udp droppedPkWrongPort:vector(count) ETV
attr interpolationmode none
attr recordingmode vector(count)
attr source packetDropReasonIsNoPortFound(packetDropped)
attr title "packets dropped (wrong port), count"
vector 171 AeroCommNetwork.africa.AtcFir[1].AtcArea[1].airport[1].controller[0].udp droppedPkBadChecksum:vector(count) ETV
attr interpolationmode none
attr recordingmode vector(count)
attr source packetDropReasonIsIncorrectlyReceived(packetDropped)
attr title "packets dropped (checksum error), count"
vector 172 AeroCommNetwork.africa.AtcFir[1].AtcArea[1].airport[1].controller[1].udp passedUpPk:vector(count) ETV
attr interpolationmode none
attr recordingmode vector(count)
attr source packetSentToUpper
attr title "packets passed up, count"
vector 173 AeroCommNetwork.africa.AtcFir[1].AtcArea[1].airport[1].controller[1].udp droppedPkWrongPort:vector(count) ETV
attr interpolationmode none
attr recordingmode vector(count)
attr source packetDropReasonIsNoPortFound(packetDropped)
attr title "packets dropped (wrong port), count"
vector 174 AeroCommNetwork.africa.AtcFir[1].AtcArea[1].airport[1].controller[1].udp droppedPkBadChecksum:vector(count) ETV
attr interpolationmode none
attr recordingmode vector(count)
attr source packetDropReasonIsIncorrectlyReceived(packetDropped)
attr title "packets dropped (checksum error), count"
vector 175 AeroCommNetwork.africa.AtcFir[1].AtcArea[1].airport[1].aircraft[0].wlan[0].mac.dcf frameSequenceActive:vector ETV
attr autoWarmupFilter false
attr interpolationmode sample-hold
attr recordingmode vector
attr source warmup(count(frameSequenceStarted)-count(frameSequenceFinished))
attr title "frame sequence active"
vector 176 AeroCommNetwork.africa.AtcFir[1].AtcArea[1].airport[1].aircraft[0].wlan[0].mac.dcf.channelAccess.inProgressFrames queueLength:vector ETV
attr autoWarmupFilter false
attr interpolationmode sample-hold
attr recordingmode vector
attr source "warmup(count(packetEnqueued) - count(packetDequeued))"
attr title "queue length"
vector 177 AeroCommNetwork.africa.AtcFir[1].AtcArea[1].airport[1].aircraft[0].wlan[0].mac.dcf.channelAccess.contention backoffActive:vector ETV
attr autoWarmupFilter false
attr interpolationmode sample-hold
attr recordingmode vector
attr source warmup(count(backoffStarted)-count(backoffStopped))
attr title "backoff active"
vector 178 AeroCommNetwork.africa.AtcFir[1].AtcArea[1].airport[1].aircraft[0].udp passedUpPk:vector(count) ETV
attr interpolationmode none
attr recordingmode vector(count)
attr source packetSentToUpper
attr title "packets passed up, count"
vector 179 AeroCommNetwork.africa.AtcFir[1].AtcArea[1].airport[1].aircraft[0].udp droppedPkWrongPort:vector(count) ETV
attr interpolationmode none
attr recordingmode vector(count)
attr source packetDropReasonIsNoPortFound(packetDropped)
attr title "packets dropped (wrong port), count"
vector 180 AeroCommNetwork.africa.AtcFir[1].AtcArea[1].airport[1].aircraft[0].udp droppedPkBadChecksum:vector(count) ETV
attr interpolationmode none
attr recordingmode vector(count)
attr source packetDropReasonIsIncorrectlyReceived(packetDropped)
attr title "packets dropped (checksum error), count"
vector 181 AeroCommNetwork.africa.AtcFir[1].AtcArea[1].airport[1].airportRouter.ppp[0].ppp transmissionState:vector ETV
attr interpolationmode sample-hold
attr recordingmode vector
attr source transmissionStateChanged
attr title "tx state"
vector 182 AeroCommNetwork.africa.AtcFir[1].AtcArea[1].airport[1].atmAccessPoint.wlan[0].mac.dcf frameSequenceActive:vector ETV
attr autoWarmupFilter false
attr interpolationmode sample-hold
attr recordingmode vector
attr source warmup(count(frameSequenceStarted)-count(frameSequenceFinished))
attr title "frame sequence active"
vector 183 AeroCommNetwork.africa.AtcFir[1].AtcArea[1].airport[1].atmAccessPoint.wlan[0].mac.dcf.channelAccess.inProgressFrames queueLength:vector ETV
attr autoWarmupFilter false
attr interpolationmode sample-hold
attr recordingmode vector
attr source "warmup(count(packetEnqueued) - count(packetDequeued))"
attr title "queue length"
vector 184 AeroCommNetwork.africa.AtcFir[1].AtcArea[1].airport[1].atmAccessPoint.wlan[0].mac.dcf.channelAccess.contention backoffActive:vector ETV
attr autoWarmupFilter false
attr interpolationmode sample-hold
attr recordingmode vector
attr source warmup(count(backoffStarted)-count(backoffStopped))
attr title "backoff active"
vector 185 AeroCommNetwork.africa.AtcFir[1].AtcArea[1].sector[0].ppp[0].ppp transmissionState:vector ETV
attr interpolationmode sample-hold
attr recordingmode vector
attr source transmissionStateChanged
attr title "tx state"
vector 186 AeroCommNetwork.africa.AtcFir[1].AtcArea[1].sector[0].udp passedUpPk:vector(count) ETV
attr interpolationmode none
attr recordingmode vector(count)
attr source packetSentToUpper
attr title "packets passed up, count"
vector 187 AeroCommNetwork.africa.AtcFir[1].AtcArea[1].sector[0].udp droppedPkWrongPort:vector(count) ETV
attr interpolationmode none
attr recordingmode vector(count)
attr source packetDropReasonIsNoPortFound(packetDropped)
attr title "packets dropped (wrong port), count"
vector 188 AeroCommNetwork.africa.AtcFir[1].AtcArea[1].sector[0].udp droppedPkBadChecksum:vector(count) ETV
attr interpolationmode none
attr recordingmode vector(count)
attr source packetDropReasonIsIncorrectlyReceived(packetDropped)
attr title "packets dropped (checksum error), count"
vector 189 AeroCommNetwork.africa.AtcFir[1].AtcArea[1].sector[1].ppp[0].ppp transmissionState:vector ETV
attr interpolationmode sample-hold
attr recordingmode vector
attr source transmissionStateChanged
attr title "tx state"
vector 190 AeroCommNetwork.africa.AtcFir[1].AtcArea[1].sector[1].udp passedUpPk:vector(count) ETV
attr interpolationmode none
attr recordingmode vector(count)
attr source packetSentToUpper
attr title "packets passed up, count"
vector 191 AeroCommNetwork.africa.AtcFir[1].AtcArea[1].sector[1].udp droppedPkWrongPort:vector(count) ETV
attr interpolationmode none
attr recordingmode vector(count)
attr source packetDropReasonIsNoPortFound(packetDropped)
attr title "packets dropped (wrong port), count"
vector 192 AeroCommNetwork.africa.AtcFir[1].AtcArea[1].sector[1].udp droppedPkBadChecksum:vector(count) ETV
attr interpolationmode none
attr recordingmode vector(count)
attr source packetDropReasonIsIncorrectlyReceived(packetDropped)
attr title "packets dropped (checksum error), count"
vector 193 AeroCommNetwork.africa.AtcFir[1].AtcArea[1].atcAgent.udp passedUpPk:vector(count) ETV
attr interpolationmode none
attr recordingmode vector(count)
attr source packetSentToUpper
attr title "packets passed up, count"
vector 194 AeroCommNetwork.africa.AtcFir[1].AtcArea[1].atcAgent.udp droppedPkWrongPort:vector(count) ETV
attr interpolationmode none
attr recordingmode vector(count)
attr source packetDropReasonIsNoPortFound(packetDropped)
attr title "packets dropped (wrong port), count"
vector 195 AeroCommNetwork.africa.AtcFir[1].AtcArea[1].atcAgent.udp droppedPkBadChecksum:vector(count) ETV
attr interpolationmode none
attr recordingmode vector(count)
attr source packetDropReasonIsIncorrectlyReceived(packetDropped)
attr title "packets dropped (checksum error), count"
vector 196 AeroCommNetwork.africa.AtcFir[1].AtcArea[1].areaRouter.ppp[0].ppp transmissionState:vector ETV
attr interpolationmode sample-hold
attr recordingmode vector
attr source transmissionStateChanged
attr title "tx state"
vector 197 AeroCommNetwork.africa.AtcFir[1].AtcArea[1].areaRouter.ppp[1].ppp transmissionState:vector ETV
attr interpolationmode sample-hold
attr recordingmode vector
attr source transmissionStateChanged
attr title "tx state"
vector 198 AeroCommNetwork.africa.AtcFir[1].AtcArea[1].areaRouter.ppp[2].ppp transmissionState:vector ETV
attr interpolationmode sample-hold
attr recordingmode vector
attr source transmissionStateChanged
attr title "tx state"
vector 199 AeroCommNetwork.asia.backboneRouter.ppp[0].ppp transmissionState:vector ETV
attr interpolationmode sample-hold
attr recordingmode vector
attr source transmissionStateChanged
attr title "tx state"
vector 200 AeroCommNetwork.asia.backboneRouter.ppp[1].ppp transmissionState:vector ETV
attr interpolationmode sample-hold
attr recordingmode vector
attr source transmissionStateChanged
attr title "tx state"
vector 201 AeroCommNetwork.asia.backboneRouter.ppp[2].ppp transmissionState:vector ETV
attr interpolationmode sample-hold
attr recordingmode vector
attr source transmissionStateChanged
attr title "tx state"
vector 202 AeroCommNetwork.asia.AtcFir[0].FirRouter.ppp[0].ppp transmissionState:vector ETV
attr interpolationmode sample-hold
attr recordingmode vector
attr source transmissionStateChanged
attr title "tx state"
vector 203 AeroCommNetwork.asia.AtcFir[0].FirRouter.ppp[1].ppp transmissionState:vector ETV
attr interpolationmode sample-hold
attr recordingmode vector
attr source transmissionStateChanged
attr title "tx state"
vector 204 AeroCommNetwork.asia.AtcFir[0].FirRouter.ppp[2].ppp transmissionState:vector ETV
attr interpolationmode sample-hold
attr recordingmode vector
attr source transmissionStateChanged
attr title "tx state"
vector 205 AeroCommNetwork.asia.AtcFir[0].AtcArea[0].airport[0].controller[0].udp passedUpPk:vector(count) ETV
attr interpolationmode none
attr recordingmode vector(count)
attr source packetSentToUpper
attr title "packets passed up, count"
vector 206 AeroCommNetwork.asia.AtcFir[0].AtcArea[0].airport[0].controller[0].udp droppedPkWrongPort:vector(count) ETV
attr interpolationmode none
attr recordingmode vector(count)
attr source packetDropReasonIsNoPortFound(packetDropped)
attr title "packets dropped (wrong port), count"
vector 207 AeroCommNetwork.asia.AtcFir[0].AtcArea[0].airport[0].controller[0].udp droppedPkBadChecksum:vector(count) ETV
attr interpolationmode none
attr recordingmode vector(count)
attr source packetDropReasonIsIncorrectlyReceived(packetDropped)
attr title "packets dropped (checksum error), count"
vector 208 AeroCommNetwork.asia.AtcFir[0].AtcArea[0].airport[0].controller[1].udp passedUpPk:vector(count) ETV
attr interpolationmode none
attr recordingmode vector(count)
attr source packetSentToUpper
attr title "packets passed up, count"
vector 209 AeroCommNetwork.asia.AtcFir[0].AtcArea[0].airport[0].controller[1].udp droppedPkWrongPort:vector(count) ETV
attr interpolationmode none
attr recordingmode vector(count)
attr source packetDropReasonIsNoPortFound(packetDropped)
attr title "packets dropped (wrong port), count"
vector 210 AeroCommNetwork.asia.AtcFir[0].AtcArea[0].airport[0].controller[1].udp droppedPkBadChecksum:vector(count) ETV
attr interpolationmode none
attr recordingmode vector(count)
attr source packetDropReasonIsIncorrectlyReceived(packetDropped)
attr title "packets dropped (checksum error), count"
vector 211 AeroCommNetwork.asia.AtcFir[0].AtcArea[0].airport[0].aircraft[0].wlan[0].mac.dcf frameSequenceActive:vector ETV
attr autoWarmupFilter false
attr interpolationmode sample-hold
attr recordingmode vector
attr source warmup(count(frameSequenceStarted)-count(frameSequenceFinished))
attr title "frame sequence active"
vector 212 AeroCommNetwork.asia.AtcFir[0].AtcArea[0].airport[0].aircraft[0].wlan[0].mac.dcf.channelAccess.inProgressFrames queueLength:vector ETV
attr autoWarmupFilter false
attr interpolationmode sample-hold
attr recordingmode vector
attr source "warmup(count(packetEnqueued) - count(packetDequeued))"
attr title "queue length"
vector 213 AeroCommNetwork.asia.AtcFir[0].AtcArea[0].airport[0].aircraft[0].wlan[0].mac.dcf.channelAccess.contention backoffActive:vector ETV
attr autoWarmupFilter false
attr interpolationmode sample-hold
attr recordingmode vector
attr source warmup(count(backoffStarted)-count(backoffStopped))
attr title "backoff active"
vector 214 AeroCommNetwork.asia.AtcFir[0].AtcArea[0].airport[0].aircraft[0].udp passedUpPk:vector(count) ETV
attr interpolationmode none
attr recordingmode vector(count)
attr source packetSentToUpper
attr title "packets passed up, count"
vector 215 AeroCommNetwork.asia.AtcFir[0].AtcArea[0].airport[0].aircraft[0].udp droppedPkWrongPort:vector(count) ETV
attr interpolationmode none
attr recordingmode vector(count)
attr source packetDropReasonIsNoPortFound(packetDropped)
attr title "packets dropped (wrong port), count"
vector 216 AeroCommNetwork.asia.AtcFir[0].AtcArea[0].airport[0].aircraft[0].udp droppedPkBadChecksum:vector(count) ETV
attr interpolationmode none
attr recordingmode vector(count)
attr source packetDropReasonIsIncorrectlyReceived(packetDropped)
attr title "packets dropped (checksum error), count"
vector 217 AeroCommNetwork.asia.AtcFir[0].AtcArea[0].airport[0].airportRouter.ppp[0].ppp transmissionState:vector ETV
attr interpolationmode sample-hold
attr recordingmode vector
attr source transmissionStateChanged
attr title "tx state"
vector 218 AeroCommNetwork.asia.AtcFir[0].AtcArea[0].airport[0].atmAccessPoint.wlan[0].mac.dcf frameSequenceActive:vector ETV
attr autoWarmupFilter false
attr interpolationmode sample-hold
attr recordingmode vector
attr source warmup(count(frameSequenceStarted)-count(frameSequenceFinished))
attr title "frame sequence active"
vector 219 AeroCommNetwork.asia.AtcFir[0].AtcArea[0].airport[0].atmAccessPoint.wlan[0].mac.dcf.channelAccess.inProgressFrames queueLength:vector ETV
attr autoWarmupFilter false
attr interpolationmode sample-hold
attr recordingmode vector
attr source "warmup(count(packetEnqueued) - count(packetDequeued))"
attr title "queue length"
vector 220 AeroCommNetwork.asia.AtcFir[0].AtcArea[0].airport[0].atmAccessPoint.wlan[0].mac.dcf.channelAccess.contention backoffActive:vector ETV
attr autoWarmupFilter false
attr interpolationmode sample-hold
attr recordingmode vector
attr source warmup(count(backoffStarted)-count(backoffStopped))
attr title "backoff active"
vector 221 AeroCommNetwork.asia.AtcFir[0].AtcArea[0].airport[1].controller[0].udp passedUpPk:vector(count) ETV
attr interpolationmode none
attr recordingmode vector(count)
attr source packetSentToUpper
attr title "packets passed up, count"
vector 222 AeroCommNetwork.asia.AtcFir[0].AtcArea[0].airport[1].controller[0].udp droppedPkWrongPort:vector(count) ETV
attr interpolationmode none
attr recordingmode vector(count)
attr source packetDropReasonIsNoPortFound(packetDropped)
attr title "packets dropped (wrong port), count"
vector 223 AeroCommNetwork.asia.AtcFir[0].AtcArea[0].airport[1].controller[0].udp droppedPkBadChecksum:vector(count) ETV
attr interpolationmode none
attr recordingmode vector(count)
attr source packetDropReasonIsIncorrectlyReceived(packetDropped)
attr title "packets dropped (checksum error), count"
vector 224 AeroCommNetwork.asia.AtcFir[0].AtcArea[0].airport[1].controller[1].udp passedUpPk:vector(count) ETV
attr interpolationmode none
attr recordingmode vector(count)
attr source packetSentToUpper
attr title "packets passed up, count"
vector 225 AeroCommNetwork.asia.AtcFir[0].AtcArea[0].airport[1].controller[1].udp droppedPkWrongPort:vector(count) ETV
attr interpolationmode none
attr recordingmode vector(count)
attr source packetDropReasonIsNoPortFound(packetDropped)
attr title "packets dropped (wrong port), count"
vector 226 AeroCommNetwork.asia.AtcFir[0].AtcArea[0].airport[1].controller[1].udp droppedPkBadChecksum:vector(count) ETV
attr interpolationmode none
attr recordingmode vector(count)
attr source packetDropReasonIsIncorrectlyReceived(packetDropped)
attr title "packets dropped (checksum error), count"
vector 227 AeroCommNetwork.asia.AtcFir[0].AtcArea[0].airport[1].aircraft[0].wlan[0].mac.dcf frameSequenceActive:vector ETV
attr autoWarmupFilter false
attr interpolationmode sample-hold
attr recordingmode vector
attr source warmup(count(frameSequenceStarted)-count(frameSequenceFinished))
attr title "frame sequence active"
vector 228 AeroCommNetwork.asia.AtcFir[0].AtcArea[0].airport[1].aircraft[0].wlan[0].mac.dcf.channelAccess.inProgressFrames queueLength:vector ETV
attr autoWarmupFilter false
attr interpolationmode sample-hold
attr recordingmode vector
attr source "warmup(count(packetEnqueued) - count(packetDequeued))"
attr title "queue length"
vector 229 AeroCommNetwork.asia.AtcFir[0].AtcArea[0].airport[1].aircraft[0].wlan[0].mac.dcf.channelAccess.contention backoffActive:vector ETV
attr autoWarmupFilter false
attr interpolationmode sample-hold
attr recordingmode vector
attr source warmup(count(backoffStarted)-count(backoffStopped))
attr title "backoff active"
vector 230 AeroCommNetwork.asia.AtcFir[0].AtcArea[0].airport[1].aircraft[0].udp passedUpPk:vector(count) ETV
attr interpolationmode none
attr recordingmode vector(count)
attr source packetSentToUpper
attr title "packets passed up, count"
vector 231 AeroCommNetwork.asia.AtcFir[0].AtcArea[0].airport[1].aircraft[0].udp droppedPkWrongPort:vector(count) ETV
attr interpolationmode none
attr recordingmode vector(count)
attr source packetDropReasonIsNoPortFound(packetDropped)
attr title "packets dropped (wrong port), count"
vector 232 AeroCommNetwork.asia.AtcFir[0].AtcArea[0].airport[1].aircraft[0].udp droppedPkBadChecksum:vector(count) ETV
attr interpolationmode none
attr recordingmode vector(count)
attr source packetDropReasonIsIncorrectlyReceived(packetDropped)
attr title "packets dropped (checksum error), count"
vector 233 AeroCommNetwork.asia.AtcFir[0].AtcArea[0].airport[1].airportRouter.ppp[0].ppp transmissionState:vector ETV
attr interpolationmode sample-hold
attr recordingmode vector
attr source transmissionStateChanged
attr title "tx state"
vector 234 AeroCommNetwork.asia.AtcFir[0].AtcArea[0].airport[1].atmAccessPoint.wlan[0].mac.dcf frameSequenceActive:vector ETV
attr autoWarmupFilter false
attr interpolationmode sample-hold
attr recordingmode vector
attr source warmup(count(frameSequenceStarted)-count(frameSequenceFinished))
attr title "frame sequence active"
vector 235 AeroCommNetwork.asia.AtcFir[0].AtcArea[0].airport[1].atmAccessPoint.wlan[0].mac.dcf.channelAccess.inProgressFrames queueLength:vector ETV
attr autoWarmupFilter false
attr interpolationmode sample-hold
attr recordingmode vector
attr source "warmup(count(packetEnqueued) - count(packetDequeued))"
attr title "queue length"
vector 236 AeroCommNetwork.asia.AtcFir[0].AtcArea[0].airport[1].atmAccessPoint.wlan[0].mac.dcf.channelAccess.contention backoffActive:vector ETV
attr autoWarmupFilter false
attr interpolationmode sample-hold
attr recordingmode vector
attr source warmup(count(backoffStarted)-count(backoffStopped))
attr title "backoff active"
vector 237 AeroCommNetwork.asia.AtcFir[0].AtcArea[0].sector[0].ppp[0].ppp transmissionState:vector ETV
attr interpolationmode sample-hold
attr recordingmode vector
attr source transmissionStateChanged
attr title "tx state"
vector 238 AeroCommNetwork.asia.AtcFir[0].AtcArea[0].sector[0].udp passedUpPk:vector(count) ETV
attr interpolationmode none
attr recordingmode vector(count)
attr source packetSentToUpper
attr title "packets passed up, count"
vector 239 AeroCommNetwork.asia.AtcFir[0].AtcArea[0].sector[0].udp droppedPkWrongPort:vector(count) ETV
attr interpolationmode none
attr recordingmode vector(count)
attr source packetDropReasonIsNoPortFound(packetDropped)
attr title "packets dropped (wrong port), count"
vector 240 AeroCommNetwork.asia.AtcFir[0].AtcArea[0].sector[0].udp droppedPkBadChecksum:vector(count) ETV
attr interpolationmode none
attr recordingmode vector(count)
attr source packetDropReasonIsIncorrectlyReceived(packetDropped)
attr title "packets dropped (checksum error), count"
vector 241 AeroCommNetwork.asia.AtcFir[0].AtcArea[0].sector[1].ppp[0].ppp transmissionState:vector ETV
attr interpolationmode sample-hold
attr recordingmode vector
attr source transmissionStateChanged
attr title "tx state"
vector 242 AeroCommNetwork.asia.AtcFir[0].AtcArea[0].sector[1].udp passedUpPk:vector(count) ETV
attr interpolationmode none
attr recordingmode vector(count)
attr source packetSentToUpper
attr title "packets passed up, count"
vector 243 AeroCommNetwork.asia.AtcFir[0].AtcArea[0].sector[1].udp droppedPkWrongPort:vector(count) ETV
attr interpolationmode none
attr recordingmode vector(count)
attr source packetDropReasonIsNoPortFound(packetDropped)
attr title "packets dropped (wrong port), count"
vector 244 AeroCommNetwork.asia.AtcFir[0].AtcArea[0].sector[1].udp droppedPkBadChecksum:vector(count) ETV
attr interpolationmode none
attr recordingmode vector(count)
attr source packetDropReasonIsIncorrectlyReceived(packetDropped)
attr title "packets dropped (checksum error), count"
vector 245 AeroCommNetwork.asia.AtcFir[0].AtcArea[0].atcAgent.udp passedUpPk:vector(count) ETV
attr interpolationmode none
attr recordingmode vector(count)
attr source packetSentToUpper
attr title "packets passed up, count"
vector 246 AeroCommNetwork.asia.AtcFir[0].AtcArea[0].atcAgent.udp droppedPkWrongPort:vector(count) ETV
attr interpolationmode none
attr recordingmode vector(count)
attr source packetDropReasonIsNoPortFound(packetDropped)
attr title "packets dropped (wrong port), count"
vector 247 AeroCommNetwork.asia.AtcFir[0].AtcArea[0].atcAgent.udp droppedPkBadChecksum:vector(count) ETV
attr interpolationmode none
attr recordingmode vector(count)
attr source packetDropReasonIsIncorrectlyReceived(packetDropped)
attr title "packets dropped (checksum error), count"
vector 248 AeroCommNetwork.asia.AtcFir[0].AtcArea[0].areaRouter.ppp[0].ppp transmissionState:vector ETV
attr interpolationmode sample-hold
attr recordingmode vector
attr source transmissionStateChanged
attr title "tx state"
vector 249 AeroCommNetwork.asia.AtcFir[0].AtcArea[0].areaRouter.ppp[1].ppp transmissionState:vector ETV
attr interpolationmode sample-hold
attr recordingmode vector
attr source transmissionStateChanged
attr title "tx state"
vector 250 AeroCommNetwork.asia.AtcFir[0].AtcArea[0].areaRouter.ppp[2].ppp transmissionState:vector ETV
attr interpolationmode sample-hold
attr recordingmode vector
attr source transmissionStateChanged
attr title "tx state"
vector 251 AeroCommNetwork.asia.AtcFir[0].AtcArea[1].airport[0].controller[0].udp passedUpPk:vector(count) ETV
attr interpolationmode none
attr recordingmode vector(count)
attr source packetSentToUpper
attr title "packets passed up, count"
vector 252 AeroCommNetwork.asia.AtcFir[0].AtcArea[1].airport[0].controller[0].udp droppedPkWrongPort:vector(count) ETV
attr interpolationmode none
attr recordingmode vector(count)
attr source packetDropReasonIsNoPortFound(packetDropped)
attr title "packets dropped (wrong port), count"
vector 253 AeroCommNetwork.asia.AtcFir[0].AtcArea[1].airport[0].controller[0].udp droppedPkBadChecksum:vector(count) ETV
attr interpolationmode none
attr recordingmode vector(count)
attr source packetDropReasonIsIncorrectlyReceived(packetDropped)
attr title "packets dropped (checksum error), count"
vector 254 AeroCommNetwork.asia.AtcFir[0].AtcArea[1].airport[0].controller[1].udp passedUpPk:vector(count) ETV
attr interpolationmode none
attr recordingmode vector(count)
attr source packetSentToUpper
attr title "packets passed up, count"
vector 255 AeroCommNetwork.asia.AtcFir[0].AtcArea[1].airport[0].controller[1].udp droppedPkWrongPort:vector(count) ETV
attr interpolationmode none
attr recordingmode vector(count)
attr source packetDropReasonIsNoPortFound(packetDropped)
attr title "packets dropped (wrong port), count"
vector 256 AeroCommNetwork.asia.AtcFir[0].AtcArea[1].airport[0].controller[1].udp droppedPkBadChecksum:vector(count) ETV
attr interpolationmode none
attr recordingmode vector(count)
attr source packetDropReasonIsIncorrectlyReceived(packetDropped)
attr title "packets dropped (checksum error), count"
vector 257 AeroCommNetwork.asia.AtcFir[0].AtcArea[1].airport[0].aircraft[0].wlan[0].mac.dcf frameSequenceActive:vector ETV
attr autoWarmupFilter false
attr interpolationmode sample-hold
attr recordingmode vector
attr source warmup(count(frameSequenceStarted)-count(frameSequenceFinished))
attr title "frame sequence active"
vector 258 AeroCommNetwork.asia.AtcFir[0].AtcArea[1].airport[0].aircraft[0].wlan[0].mac.dcf.channelAccess.inProgressFrames queueLength:vector ETV
attr autoWarmupFilter false
attr interpolationmode sample-hold
attr recordingmode vector
attr source "warmup(count(packetEnqueued) - count(packetDequeued))"
attr title "queue length"
vector 259 AeroCommNetwork.asia.AtcFir[0].AtcArea[1].airport[0].aircraft[0].wlan[0].mac.dcf.channelAccess.contention backoffActive:vector ETV
attr autoWarmupFilter false
attr interpolationmode sample-hold
attr recordingmode vector
attr source warmup(count(backoffStarted)-count(backoffStopped))
attr title "backoff active"
vector 260 AeroCommNetwork.asia.AtcFir[0].AtcArea[1].airport[0].aircraft[0].udp passedUpPk:vector(count) ETV
attr interpolationmode none
attr recordingmode vector(count)
attr source packetSentToUpper
attr title "packets passed up, count"
vector 261 AeroCommNetwork.asia.AtcFir[0].AtcArea[1].airport[0].aircraft[0].udp droppedPkWrongPort:vector(count) ETV
attr interpolationmode none
attr recordingmode vector(count)
attr source packetDropReasonIsNoPortFound(packetDropped)
attr title "packets dropped (wrong port), count"
vector 262 AeroCommNetwork.asia.AtcFir[0].AtcArea[1].airport[0].aircraft[0].udp droppedPkBadChecksum:vector(count) ETV
attr interpolationmode none
attr recordingmode vector(count)
attr source packetDropReasonIsIncorrectlyReceived(packetDropped)
attr title "packets dropped (checksum error), count"
vector 263 AeroCommNetwork.asia.AtcFir[0].AtcArea[1].airport[0].airportRouter.ppp[0].ppp transmissionState:vector ETV
attr interpolationmode sample-hold
attr recordingmode vector
attr source transmissionStateChanged
attr title "tx state"
vector 264 AeroCommNetwork.asia.AtcFir[0].AtcArea[1].airport[0].atmAccessPoint.wlan[0].mac.dcf frameSequenceActive:vector ETV
attr autoWarmupFilter false
attr interpolationmode sample-hold
attr recordingmode vector
attr source warmup(count(frameSequenceStarted)-count(frameSequenceFinished))
attr title "frame sequence active"
vector 265 AeroCommNetwork.asia.AtcFir[0].AtcArea[1].airport[0].atmAccessPoint.wlan[0].mac.dcf.channelAccess.inProgressFrames queueLength:vector ETV
attr autoWarmupFilter false
attr interpolationmode sample-hold
attr recordingmode vector
attr source "warmup(count(packetEnqueued) - count(packetDequeued))"
attr title "queue length"
[...]
257	0	0	0
258	0	0	0
258	0	0	0
259	0	0	0
259	0	0	0
260	0	0	0
261	0	0	0
262	0	0	0
263	0	0	0
264	0	0	0
264	0	0	0
265	0	0	0
265	0	0	0
266	0	0	0
266	0	0	0
267	0	0	0
268	0	0	0
269	0	0	0
270	0	0	0
271	0	0	0
272	0	0	0
273	0	0	0
273	0	0	0
274	0	0	0
274	0	0	0
275	0	0	0
275	0	0	0
276	0	0	0
277	0	0	0
278	0	0	0
279	0	0	0
280	0	0	0
280	0	0	0
281	0	0	0
281	0	0	0
282	0	0	0
282	0	0	0
283	0	0	0
284	0	0	0
285	0	0	0
286	0	0	0
287	0	0	0
288	0	0	0
289	0	0	0
290	0	0	0
291	0	0	0
292	0	0	0
293	0	0	0
294	0	0	0
295	0	0	0
296	0	0	0
297	0	0	0
298	0	0	0
299	0	0	0
300	0	0	0
301	0	0	0
302	0	0	0
303	0	0	0
304	0	0	0
305	0	0	0
306	0	0	0
306	0	0	0
307	0	0	0
307	0	0	0
308	0	0	0
308	0	0	0
309	0	0	0
310	0	0	0
311	0	0	0
312	0	0	0
313	0	0	0
313	0	0	0
314	0	0	0
314	0	0	0
315	0	0	0
315	0	0	0
316	0	0	0
317	0	0	0
318	0	0	0
319	0	0	0
320	0	0	0
321	0	0	0
322	0	0	0
322	0	0	0
323	0	0	0
323	0	0	0
324	0	0	0
324	0	0	0
325	0	0	0
326	0	0	0
327	0	0	0
328	0	0	0
329	0	0	0
329	0	0	0
330	0	0	0
330	0	0	0
331	0	0	0
331	0	0	0
332	0	0	0
333	0	0	0
334	0	0	0
335	0	0	0
336	0	0	0
337	0	0	0
338	0	0	0
339	0	0	0
340	0	0	0
341	0	0	0
342	0	0	0
343	0	0	0
344	0	0	0
345	0	0	0
346	0	0	0
347	0	0	0
348	0	0	0
349	0	0	0
350	0	0	0
351	0	0	0
352	0	0	0
352	0	0	0
353	0	0	0
353	0	0	0
354	0	0	0
354	0	0	0
355	0	0	0
356	0	0	0
357	0	0	0
358	0	0	0
359	0	0	0
359	0	0	0
360	0	0	0
360	0	0	0
361	0	0	0
361	0	0	0
362	0	0	0
363	0	0	0
364	0	0	0
365	0	0	0
366	0	0	0
367	0	0	0
368	0	0	0
368	0	0	0
369	0	0	0
369	0	0	0
370	0	0	0
370	0	0	0
371	0	0	0
372	0	0	0
373	0	0	0
374	0	0	0
375	0	0	0
375	0	0	0
376	0	0	0
376	0	0	0
377	0	0	0
377	0	0	0
378	0	0	0
379	0	0	0
380	0	0	0
381	0	0	0
382	0	0	0
383	0	0	0
384	0	0	0
385	0	0	0
386	0	0	0
387	0	0	0
388	0	0	0
389	0	0	0
390	0	0	0
391	0	0	0
392	0	0	0
393	0	0	0
394	0	0	0
395	0	0	0
396	0	0	0
397	0	0	0
398	0	0	0
399	0	0	0
400	0	0	0
401	0	0	0
402	0	0	0
403	0	0	0
404	0	0	0
404	0	0	0
405	0	0	0
405	0	0	0
406	0	0	0
406	0	0	0
407	0	0	0
408	0	0	0
409	0	0	0
410	0	0	0
411	0	0	0
411	0	0	0
412	0	0	0
412	0	0	0
413	0	0	0
413	0	0	0
414	0	0	0
415	0	0	0
416	0	0	0
417	0	0	0
418	0	0	0
419	0	0	0
420	0	0	0
420	0	0	0
421	0	0	0
421	0	0	0
422	0	0	0
422	0	0	0
423	0	0	0
424	0	0	0
425	0	0	0
426	0	0	0
427	0	0	0
427	0	0	0
428	0	0	0
428	0	0	0
429	0	0	0
429	0	0	0
430	0	0	0
431	0	0	0
432	0	0	0
433	0	0	0
434	0	0	0
435	0	0	0
436	0	0	0
437	0	0	0
438	0	0	0
439	0	0	0
440	0	0	0
441	0	0	0
442	0	0	0
443	0	0	0
444	0	0	0
445	0	0	0
446	0	0	0
447	0	0	0
448	0	0	0
449	0	0	0
450	0	0	0
450	0	0	0
451	0	0	0
451	0	0	0
452	0	0	0
452	0	0	0
453	0	0	0
454	0	0	0
455	0	0	0
456	0	0	0
457	0	0	0
457	0	0	0
458	0	0	0
458	0	0	0
459	0	0	0
459	0	0	0
460	0	0	0
461	0	0	0
462	0	0	0
463	0	0	0
464	0	0	0
465	0	0	0
466	0	0	0
466	0	0	0
467	0	0	0
467	0	0	0
468	0	0	0
468	0	0	0
469	0	0	0
470	0	0	0
471	0	0	0
472	0	0	0
473	0	0	0
473	0	0	0
474	0	0	0
474	0	0	0
475	0	0	0
475	0	0	0
476	0	0	0
477	0	0	0
478	0	0	0
479	0	0	0
480	0	0	0
481	0	0	0
482	0	0	0
483	0	0	0
484	0	0	0
485	0	0	0
486	0	0	0
487	0	0	0
488	0	0	0
489	0	0	0
490	0	0	0
491	0	0	0
492	0	0	0
493	0	0	0
494	0	0	0
495	0	0	0
496	0	0	0
497	0	0	0
498	0	0	0
499	0	0	0
499	0	0	0
500	0	0	0
500	0	0	0
501	0	0	0
501	0	0	0
502	0	0	0
503	0	0	0
504	0	0	0
505	0	0	0
506	0	0	0
506	0	0	0
507	0	0	0
507	0	0	0
508	0	0	0
508	0	0	0
509	0	0	0
510	0	0	0
511	0	0	0
512	0	0	0
513	0	0	0
514	0	0	0
515	0	0	0
515	0	0	0
516	0	0	0
516	0	0	0
517	0	0	0
517	0	0	0
518	0	0	0
519	0	0	0
520	0	0	0
521	0	0	0
522	0	0	0
522	0	0	0
523	0	0	0
523	0	0	0
524	0	0	0
524	0	0	0
525	0	0	0
526	0	0	0
527	0	0	0
528	0	0	0
529	0	0	0
530	0	0	0
531	0	0	0
532	0	0	0
533	0	0	0
534	0	0	0
535	0	0	0
536	0	0	0
537	0	0	0
538	0	0	0
539	0	0	0
540	0	0	0
541	0	0	0
542	0	0	0
543	0	0	0
544	0	0	0
545	0	0	0
545	0	0	0
546	0	0	0
546	0	0	0
547	0	0	0
547	0	0	0
548	0	0	0
549	0	0	0
550	0	0	0
551	0	0	0
552	0	0	0
552	0	0	0
553	0	0	0
553	0	0	0
554	0	0	0
554	0	0	0
555	0	0	0
556	0	0	0
557	0	0	0
558	0	0	0
559	0	0	0
560	0	0	0
561	0	0	0
561	0	0	0
562	0	0	0
562	0	0	0
563	0	0	0
563	0	0	0
564	0	0	0
565	0	0	0
566	0	0	0
567	0	0	0
568	0	0	0
568	0	0	0
569	0	0	0
569	0	0	0
570	0	0	0
570	0	0	0
571	0	0	0
572	0	0	0
573	0	0	0
574	0	0	0
575	0	0	0
576	0	0	0
577	0	0	0
578	0	0	0
579	0	0	0
580	0	0	0
581	0	0	0
582	0	0	0
583	0	0	0
584	0	0	0
585	0	0	0
586	0	0	0
587	0	0	0
588	0	0	0
589	0	0	0
590	0	0	0
591	0	0	0
592	0	0	0
593	0	0	0
594	0	0	0
595	0	0	0
596	0	0	0
597	0	0	0
597	0	0	0
598	0	0	0
598	0	0	0
599	0	0	0
599	0	0	0
600	0	0	0
601	0	0	0
602	0	0	0
603	0	0	0
604	0	0	0
604	0	0	0
605	0	0	0
605	0	0	0
606	0	0	0
606	0	0	0
607	0	0	0
608	0	0	0
609	0	0	0
610	0	0	0
611	0	0	0
612	0	0	0
613	0	0	0
613	0	0	0
614	0	0	0
614	0	0	0
615	0	0	0
615	0	0	0
616	0	0	0
617	0	0	0
618	0	0	0
619	0	0	0
620	0	0	0
620	0	0	0
621	0	0	0
621	0	0	0
622	0	0	0
622	0	0	0
623	0	0	0
624	0	0	0
625	0	0	0
626	0	0	0
627	0	0	0
628	0	0	0
629	0	0	0
630	0	0	0
631	0	0	0
632	0	0	0
633	0	0	0
634	0	0	0
635	0	0	0
636	0	0	0
637	0	0	0
638	0	0	0
639	0	0	0
640	0	0	0
641	0	0	0
642	0	0	0
643	0	0	0
643	0	0	0
644	0	0	0
644	0	0	0
645	0	0	0
645	0	0	0
646	0	0	0
647	0	0	0
648	0	0	0
649	0	0	0
650	0	0	0
650	0	0	0
651	0	0	0
651	0	0	0
652	0	0	0
652	0	0	0
653	0	0	0
654	0	0	0
655	0	0	0
656	0	0	0
657	0	0	0
658	0	0	0
659	0	0	0
659	0	0	0
660	0	0	0
660	0	0	0
661	0	0	0
661	0	0	0
662	0	0	0
663	0	0	0
664	0	0	0
665	0	0	0
666	0	0	0
666	0	0	0
667	0	0	0
667	0	0	0
668	0	0	0
668	0	0	0
669	0	0	0
670	0	0	0
671	0	0	0
672	0	0	0
673	0	0	0
674	0	0	0
675	0	0	0
676	0	0	0
677	0	0	0
678	0	0	0
679	0	0	0
680	0	0	0
681	0	0	0
682	0	0	0
683	0	0	0
684	0	0	0
685	0	0	0
686	0	0	0
687	0	0	0
688	0	0	0
689	0	0	0
690	0	0	0
691	0	0	0
692	0	0	0
692	0	0	0
693	0	0	0
693	0	0	0
694	0	0	0
694	0	0	0
695	0	0	0
696	0	0	0
697	0	0	0
698	0	0	0
699	0	0	0
699	0	0	0
700	0	0	0
700	0	0	0
701	0	0	0
701	0	0	0
702	0	0	0
703	0	0	0
704	0	0	0
705	0	0	0
706	0	0	0
707	0	0	0
708	0	0	0
708	0	0	0
709	0	0	0
709	0	0	0
710	0	0	0
710	0	0	0
711	0	0	0
712	0	0	0
713	0	0	0
714	0	0	0
715	0	0	0
715	0	0	0
716	0	0	0
716	0	0	0
717	0	0	0
717	0	0	0
718	0	0	0
719	0	0	0
720	0	0	0
721	0	0	0
722	0	0	0
723	0	0	0
724	0	0	0
725	0	0	0
726	0	0	0
727	0	0	0
728	0	0	0
729	0	0	0
730	0	0	0
731	0	0	0
732	0	0	0
733	0	0	0
734	0	0	0
735	0	0	0
736	0	0	0
737	0	0	0
738	0	0	0
738	0	0	0
739	0	0	0
739	0	0	0
740	0	0	0
740	0	0	0
741	0	0	0
742	0	0	0
743	0	0	0
744	0	0	0
745	0	0	0
745	0	0	0
746	0	0	0
746	0	0	0
747	0	0	0
747	0	0	0
748	0	0	0
749	0	0	0
750	0	0	0
751	0	0	0
752	0	0	0
753	0	0	0
754	0	0	0
754	0	0	0
755	0	0	0
755	0	0	0
756	0	0	0
756	0	0	0
757	0	0	0
758	0	0	0
759	0	0	0
760	0	0	0
761	0	0	0
761	0	0	0
762	0	0	0
762	0	0	0
763	0	0	0
763	0	0	0
764	0	0	0
765	0	0	0
766	0	0	0
767	0	0	0
768	0	0	0
769	0	0	0
770	0	0	0
771	0	0	0
772	0	0	0
773	0	0	0
774	0	0	0
775	0	0	0
776	0	0	0
777	0	0	0
778	0	0	0
779	0	0	0
780	0	0	0
781	0	0	0
782	0	0	0
783	0	0	0
784	0	0	0
785	0	0	0
786	0	0	0
787	0	0	0
788	0	0	0
789	0	0	0
790	0	0	0
790	0	0	0
791	0	0	0
791	0	0	0
792	0	0	0
792	0	0	0
793	0	0	0
794	0	0	0
795	0	0	0
796	0	0	0
797	0	0	0
797	0	0	0
798	0	0	0
798	0	0	0
799	0	0	0
799	0	0	0
800	0	0	0
801	0	0	0
802	0	0	0
803	0	0	0
804	0	0	0
805	0	0	0
806	0	0	0
806	0	0	0
807	0	0	0
807	0	0	0
808	0	0	0
808	0	0	0
809	0	0	0
810	0	0	0
811	0	0	0
812	0	0	0
813	0	0	0
813	0	0	0
814	0	0	0
814	0	0	0
815	0	0	0
815	0	0	0
816	0	0	0
817	0	0	0
818	0	0	0
819	0	0	0
820	0	0	0
821	0	0	0
822	0	0	0
823	0	0	0
824	0	0	0
825	0	0	0
826	0	0	0
827	0	0	0
828	0	0	0
829	0	0	0
830	0	0	0
831	0	0	0
832	0	0	0
833	0	0	0
834	0	0	0
835	0	0	0
836	0	0	0
836	0	0	0
837	0	0	0
837	0	0	0
838	0	0	0
838	0	0	0
839	0	0	0
840	0	0	0
841	0	0	0
842	0	0	0
843	0	0	0
843	0	0	0
844	0	0	0
844	0	0	0
845	0	0	0
845	0	0	0
846	0	0	0
847	0	0	0
848	0	0	0
849	0	0	0
850	0	0	0
851	0	0	0
852	0	0	0
852	0	0	0
853	0	0	0
853	0	0	0
854	0	0	0
854	0	0	0
855	0	0	0
856	0	0	0
857	0	0	0
858	0	0	0
859	0	0	0
859	0	0	0
860	0	0	0
860	0	0	0
861	0	0	0
861	0	0	0
862	0	0	0
863	0	0	0
864	0	0	0
865	0	0	0
866	0	0	0
867	0	0	0
868	0	0	0
869	0	0	0
870	0	0	0
871	0	0	0
872	0	0	0
873	0	0	0
874	0	0	0
875	0	0	0
876	0	0	0
877	0	0	0
878	0	0	0
879	0	0	0
880	0	0	0
881	0	0	0
882	0	0	0
883	0	0	0
884	0	0	0
885	0	0	0
885	0	0	0
886	0	0	0
886	0	0	0
887	0	0	0
887	0	0	0
888	0	0	0
889	0	0	0
890	0	0	0
891	0	0	0
892	0	0	0
892	0	0	0
893	0	0	0
893	0	0	0
894	0	0	0
894	0	0	0
895	0	0	0
896	0	0	0
897	0	0	0
898	0	0	0
899	0	0	0
900	0	0	0
901	0	0	0
901	0	0	0
902	0	0	0
902	0	0	0
903	0	0	0
903	0	0	0
904	0	0	0
905	0	0	0
906	0	0	0
907	0	0	0
908	0	0	0
908	0	0	0
909	0	0	0
909	0	0	0
910	0	0	0
910	0	0	0
911	0	0	0
912	0	0	0
913	0	0	0
914	0	0	0
915	0	0	0
916	0	0	0
917	0	0	0
918	0	0	0
919	0	0	0
920	0	0	0
921	0	0	0
922	0	0	0
923	0	0	0
924	0	0	0
925	0	0	0
926	0	0	0
927	0	0	0
928	0	0	0
929	0	0	0
930	0	0	0
931	0	0	0
931	0	0	0
932	0	0	0
932	0	0	0
933	0	0	0
933	0	0	0
934	0	0	0
935	0	0	0
936	0	0	0
937	0	0	0
938	0	0	0
938	0	0	0
939	0	0	0
939	0	0	0
940	0	0	0
940	0	0	0
941	0	0	0
942	0	0	0
943	0	0	0
944	0	0	0
945	0	0	0
946	0	0	0
947	0	0	0
947	0	0	0
948	0	0	0
948	0	0	0
949	0	0	0
949	0	0	0
950	0	0	0
951	0	0	0
952	0	0	0
953	0	0	0
954	0	0	0
954	0	0	0
955	0	0	0
955	0	0	0
956	0	0	0
956	0	0	0
957	0	0	0
958	0	0	0
959	0	0	0
960	0	0	0
961	0	0	0
962	0	0	0
963	0	0	0
964	0	0	0
965	0	0	0
966	0	0	0
967	0	0	0
968	0	0	0
969	0	0	0
970	0	0	0
971	0	0	0
972	0	0	0
973	0	0	0
974	0	0	0
975	0	0	0
976	0	0	0
977	0	0	0
978	0	0	0
979	0	0	0
980	0	0	0
981	0	0	0
982	0	0	0
983	0	0	0
983	0	0	0
984	0	0	0
984	0	0	0
985	0	0	0
985	0	0	0
986	0	0	0
987	0	0	0
988	0	0	0
989	0	0	0
990	0	0	0
990	0	0	0
991	0	0	0
991	0	0	0
992	0	0	0
992	0	0	0
993	0	0	0
994	0	0	0
995	0	0	0
996	0	0	0
997	0	0	0
998	0	0	0
999	0	0	0
999	0	0	0
1000	0	0	0
1000	0	0	0
1001	0	0	0
1001	0	0	0
1002	0	0	0
1003	0	0	0
1004	0	0	0
1005	0	0	0
1006	0	0	0
1006	0	0	0
1007	0	0	0
1007	0	0	0
1008	0	0	0
1008	0	0	0
1009	0	0	0
1010	0	0	0
1011	0	0	0
1012	0	0	0
1013	0	0	0
1014	0	0	0
1015	0	0	0
1016	0	0	0
1017	0	0	0
1018	0	0	0
1019	0	0	0
1020	0	0	0
1021	0	0	0
1022	0	0	0
1023	0	0	0
1024	0	0	0
1025	0	0	0
1026	0	0	0
1027	0	0	0
1028	0	0	0
1029	0	0	0
1029	0	0	0
1030	0	0	0
1030	0	0	0
1031	0	0	0
1031	0	0	0
1032	0	0	0
1033	0	0	0
1034	0	0	0
1035	0	0	0
1036	0	0	0
1036	0	0	0
1037	0	0	0
1037	0	0	0
1038	0	0	0
1038	0	0	0
1039	0	0	0
1040	0	0	0
1041	0	0	0
1042	0	0	0
1043	0	0	0
1044	0	0	0
1045	0	0	0
1045	0	0	0
1046	0	0	0
1046	0	0	0
1047	0	0	0
1047	0	0	0
1048	0	0	0
1049	0	0	0
1050	0	0	0
1051	0	0	0
1052	0	0	0
1052	0	0	0
1053	0	0	0
1053	0	0	0
1054	0	0	0
1054	0	0	0
1055	0	0	0
1056	0	0	0
1057	0	0	0
1058	0	0	0
1059	0	0	0
1060	0	0	0
1061	0	0	0
1062	0	0	0
1063	0	0	0
1064	0	0	0
1065	0	0	0
1066	0	0	0
1067	0	0	0
1068	0	0	0
1069	0	0	0
1070	0	0	0
1071	0	0	0
1072	0	0	0
1073	0	0	0
1074	0	0	0
1075	0	0	0
1076	0	0	0
1077	0	0	0
1078	0	0	0
1078	0	0	0
1079	0	0	0
1079	0	0	0
1080	0	0	0
1080	0	0	0
1081	0	0	0
1082	0	0	0
1083	0	0	0
1084	0	0	0
1085	0	0	0
1085	0	0	0
1086	0	0	0
1086	0	0	0
1087	0	0	0
1087	0	0	0
1088	0	0	0
1089	0	0	0
1090	0	0	0
1091	0	0	0
1092	0	0	0
1093	0	0	0
1094	0	0	0
1094	0	0	0
1095	0	0	0
1095	0	0	0
1096	0	0	0
1096	0	0	0
1097	0	0	0
1098	0	0	0
1099	0	0	0
1100	0	0	0
1101	0	0	0
1101	0	0	0
1102	0	0	0
1102	0	0	0
1103	0	0	0
1103	0	0	0
1104	0	0	0
1105	0	0	0
1106	0	0	0
1107	0	0	0
1108	0	0	0
1109	0	0	0
1110	0	0	0
1111	0	0	0
1112	0	0	0
1113	0	0	0
1114	0	0	0
1115	0	0	0
1116	0	0	0
1117	0	0	0
1118	0	0	0
1119	0	0	0
1120	0	0	0
1121	0	0	0
1122	0	0	0
1123	0	0	0
1124	0	0	0
1124	0	0	0
1125	0	0	0
1125	0	0	0
1126	0	0	0
1126	0	0	0
1127	0	0	0
1128	0	0	0
1129	0	0	0
1130	0	0	0
1131	0	0	0
1131	0	0	0
1132	0	0	0
1132	0	0	0
1133	0	0	0
1133	0	0	0
1134	0	0	0
1135	0	0	0
1136	0	0	0
1137	0	0	0
1138	0	0	0
1139	0	0	0
1140	0	0	0
1140	0	0	0
1141	0	0	0
1141	0	0	0
1142	0	0	0
1142	0	0	0
1143	0	0	0
1144	0	0	0
1145	0	0	0
1146	0	0	0
1147	0	0	0
1147	0	0	0
1148	0	0	0
1148	0	0	0
1149	0	0	0
1149	0	0	0
1150	0	0	0
1151	0	0	0
1152	0	0	0
1153	0	0	0
1154	0	0	0
1155	0	0	0
1156	0	0	0
1157	0	0	0
1158	0	0	0
1159	0	0	0
1160	0	0	0
1161	0	0	0
1162	0	0	0
1163	0	0	0
1164	0	0	0
1164	0	0	0
1164	0	0	2
1165	0	0	0
1166	0	0	0
1166	0	0	0
1166	0	0	2
1167	0	0	2
1168	0	0	0
1168	0	0	0
1168	0	0	2
1169	0	0	0
1170	0	0	0
1170	0	0	0
1170	0	0	2
1171	0	0	2
1172	0	0	0
1172	0	0	0
1172	0	0	2
1173	0	0	0
1174	0	0	0
1174	0	0	0
1174	0	0	2
1175	0	0	2
1176	0	0	0
1176	0	0	0
1176	0	0	2
1177	0	0	0
1178	0	0	0
1178	0	0	0
1178	0	0	2
1179	0	0	2
1180	0	0	0
1180	0	0	0
1180	0	0	2
1181	0	0	0
1182	0	0	0
1182	0	0	0
1182	0	0	2
1183	0	0	2
1184	0	0	0
1184	0	0	0
1184	0	0	2
1185	0	0	0
1186	0	0	0
1186	0	0	0
1186	0	0	2
1187	0	0	2
1188	0	0	0
1188	0	0	0
1188	0	0	2
1189	0	0	0
1190	0	0	0
1190	0	0	0
1190	0	0	2
1191	0	0	2
1192	0	0	0
1192	0	0	0
1192	0	0	2
1193	0	0	0
1194	0	0	0
1194	0	0	0
1194	0	0	2
1195	0	0	2
1196	0	0	0
1196	0	0	0
1196	0	0	2
1197	0	0	0
1198	0	0	0
1198	0	0	0
1198	0	0	2
1199	0	0	2
1200	0	0	0
1200	0	0	0
1200	0	0	2
1201	0	0	0
1202	0	0	0
1202	0	0	0
1202	0	0	2
1203	0	0	2
1204	0	0	0
1204	0	0	0
1204	0	0	2
1205	0	0	0
1206	0	0	0
1206	0	0	0
1206	0	0	2
1207	0	0	2
1208	0	0	0
1208	0	0	0
1208	0	0	2
1209	0	0	0
1210	0	0	0
1210	0	0	0
1210	0	0	2
1211	0	0	2
1212	0	0	0
1212	0	0	0
1212	0	0	2
1213	0	0	0
1214	0	0	0
1214	0	0	0
1214	0	0	2
1215	0	0	2
1216	0	0	0
1216	0	0	0
1216	0	0	2
1217	0	0	0
1218	0	0	0
1218	0	0	0
1218	0	0	2
1219	0	0	2
1220	0	0	0
1220	0	0	0
1220	0	0	2
1221	0	0	0
1222	0	0	0
1222	0	0	0
1222	0	0	2
1223	0	0	2
1224	0	0	0
1224	0	0	0
1224	0	0	2
1225	0	0	0
1226	0	0	0
1226	0	0	0
1226	0	0	2
1227	0	0	2
1228	0	0	0
1228	0	0	0
1228	0	0	2
1229	0	0	0
1230	0	0	0
1230	0	0	0
1230	0	0	2
1231	0	0	2
1232	0	0	0
1232	0	0	0
1232	0	0	2
1233	0	0	0
1234	0	0	0
1234	0	0	0
1234	0	0	2
1235	0	0	2
1236	0	0	0
1236	0	0	0
1236	0	0	2
1237	0	0	0
1238	0	0	0
1238	0	0	0
1238	0	0	2
1239	0	0	2
1240	0	0	0
1240	0	0	0
1240	0	0	2
1241	0	0	0
1242	0	0	0
1242	0	0	0
1242	0	0	2
1243	0	0	2
1244	0	0	0
1244	0	0	0
1244	0	0	2
1245	0	0	0
1246	0	0	0
1246	0	0	0
1246	0	0	2
1247	0	0	2
1248	0	0	0
1248	0	0	0
1248	0	0	2
1249	0	0	0
1250	0	0	0
1250	0	0	0
1250	0	0	2
1251	0	0	2
1252	0	0	0
1252	0	0	0
1252	0	0	2
1253	0	0	0
1254	0	0	0
1254	0	0	0
1254	0	0	2
1255	0	0	2
1256	0	0	0
1256	0	0	0
1256	0	0	2
1257	0	0	0
1258	0	0	0
1258	0	0	0
1258	0	0	2
1259	0	0	2
1260	0	0	0
1260	0	0	0
1260	0	0	2
1261	0	0	0
1262	0	0	0
1262	0	0	0
1262	0	0	2
1263	0	0	2
1264	0	0	0
1264	0	0	0
1264	0	0	2
1265	0	0	0
1266	0	0	0
1266	0	0	0
1266	0	0	2
1267	0	0	2
1268	0	0	0
1268	0	0	0
1268	0	0	2
1269	0	0	0
1270	0	0	0
1270	0	0	0
1270	0	0	2
1271	0	0	2
1272	0	0	0
1272	0	0	0
1272	0	0	2
1273	0	0	0
1274	0	0	0
1274	0	0	0
1274	0	0	2
1275	0	0	2
1276	0	0	0
1276	0	0	0
1276	0	0	2
1277	0	0	0
1278	0	0	0
1278	0	0	0
1278	0	0	2
1279	0	0	2
1280	0	0	0
1280	0	0	0
1280	0	0	2
1281	0	0	0
1282	0	0	0
1282	0	0	0
1282	0	0	2
1283	0	0	2
1284	0	0	0
1284	0	0	0
1284	0	0	2
1285	0	0	0
1286	0	0	0
1286	0	0	0
1286	0	0	2
1287	0	0	2
1288	0	0	0
1288	0	0	0
1288	0	0	2
1289	0	0	0
1290	0	0	0
1290	0	0	0
1290	0	0	2
1291	0	0	2
1292	0	0	0
1292	0	0	0
1292	0	0	2
1293	0	0	0
1294	0	0	0
1294	0	0	0
1294	0	0	2
1295	0	0	2
1296	0	0	0
1296	0	0	0
1296	0	0	2
1297	0	0	0
1298	0	0	0
1298	0	0	0
1298	0	0	2
1299	0	0	2
1300	0	0	0
1300	0	0	0
1300	0	0	2
1301	0	0	0
1302	0	0	0
1302	0	0	0
1302	0	0	2
1303	0	0	2
1304	0	0	0
1304	0	0	0
1304	0	0	2
1305	0	0	0
1306	0	0	0
1306	0	0	0
1306	0	0	2
1307	0	0	2
1308	0	0	0
1308	0	0	0
1308	0	0	2
1309	0	0	0
1310	0	0	0
1310	0	0	0
1310	0	0	2
1311	0	0	2
1312	0	0	0
1312	0	0	0
1312	0	0	2
1313	0	0	0
1314	0	0	0
1314	0	0	0
1314	0	0	2
1315	0	0	2
1316	0	0	0
1316	0	0	0
1316	0	0	2
1317	0	0	0
1318	0	0	0
1318	0	0	0
1318	0	0	2
1319	0	0	2
1320	0	0	0
1320	0	0	0
1320	0	0	2
1321	0	0	0
1322	0	0	0
1322	0	0	0
1322	0	0	2
1323	0	0	2
1324	0	0	0
1324	0	0	0
1324	0	0	2
1325	0	0	0
1326	0	0	0
1326	0	0	0
1326	0	0	2
1327	0	0	2
1328	0	0	0
1328	0	0	0
1328	0	0	2
1329	0	0	0
1330	0	0	0
1330	0	0	0
1330	0	0	2
1331	0	0	2
1332	0	0	0
1332	0	0	0
1332	0	0	2
1333	0	0	0
1334	0	0	0
1334	0	0	0
1334	0	0	2
1335	0	0	2
1336	0	0	0
1336	0	0	0
1336	0	0	2
1337	0	0	0
1338	0	0	0
1338	0	0	0
1338	0	0	2
1339	0	0	2
1340	0	0	0
1340	0	0	0
1340	0	0	2
1341	0	0	0
1342	0	0	0
1342	0	0	0
1342	0	0	2
1343	0	0	2
1344	0	0	0
1344	0	0	0
1344	0	0	2
1345	0	0	0
1346	0	0	0
1346	0	0	0
1346	0	0	2
1347	0	0	2
1348	0	0	0
1348	0	0	0
1348	0	0	2
1349	0	0	0
1350	0	0	0
1350	0	0	0
1350	0	0	2
1351	0	0	2
1352	0	0	0
1352	0	0	0
1352	0	0	2
1353	0	0	0
1354	0	0	0
1354	0	0	0
1354	0	0	2
1355	0	0	2
1356	0	0	1
1357	0	0	0
1357	0	0	0
1358	0	0	1
1359	0	0	0
1359	0	0	0
1360	0	0	1
1361	0	0	0
1361	0	0	0
1362	0	0	1
1363	0	0	0
1363	0	0	0
1364	0	0	1
1365	0	0	0
1365	0	0	0
1366	0	0	1
1367	0	0	0
1367	0	0	0
1368	0	0	1
1369	0	0	0
1369	0	0	0
1370	0	0	1
1371	0	0	0
1371	0	0	0
1372	0	0	1
1373	0	0	0
1373	0	0	0
1374	0	0	1
1375	0	0	0
1375	0	0	0
1376	0	0	1
1377	0	0	0
1377	0	0	0
1378	0	0	1
1379	0	0	0
1379	0	0	0
1380	0	0	1
1381	0	0	0
1381	0	0	0
1382	0	0	1
1383	0	0	0
1383	0	0	0
1384	0	0	1
1385	0	0	0
1385	0	0	0
1386	0	0	1
1387	0	0	0
1387	0	0	0
1388	0	0	1
1389	0	0	0
1389	0	0	0
1390	0	0	1
1391	0	0	0
1391	0	0	0
1392	0	0	1
1393	0	0	0
1393	0	0	0
1394	0	0	1
1395	0	0	0
1395	0	0	0
1396	0	0	1
1397	0	0	0
1397	0	0	0
1398	0	0	1
1399	0	0	0
1399	0	0	0
1400	0	0	1
1401	0	0	0
1401	0	0	0
1402	0	0	1
1403	0	0	0
1403	0	0	0
1404	0	0	1
1405	0	0	0
1405	0	0	0
1406	0	0	1
1407	0	0	0
1407	0	0	0
1408	0	0	1
1409	0	0	0
1409	0	0	0
1410	0	0	1
1411	0	0	0
1411	0	0	0
1412	0	0	1
1413	0	0	0
1413	0	0	0
1414	0	0	1
1415	0	0	0
1415	0	0	0
1416	0	0	1
1417	0	0	0
1417	0	0	0
1418	0	0	1
1419	0	0	0
1419	0	0	0
1420	0	0	1
1421	0	0	0
1421	0	0	0
1422	0	0	1
1423	0	0	0
1423	0	0	0
1424	0	0	1
1425	0	0	0
1425	0	0	0
1426	0	0	1
1427	0	0	0
1427	0	0	0
1428	0	0	1
1429	0	0	0
1429	0	0	0
1430	0	0	1
1431	0	0	0
1431	0	0	0
1432	0	0	1
1433	0	0	0
1433	0	0	0
1434	0	0	1
1435	0	0	0
1435	0	0	0
1436	0	0	1
1437	0	0	0
1437	0	0	0
1438	0	0	1
1439	0	0	0
1439	0	0	0
1440	0	0	1
1441	0	0	0
1441	0	0	0
1442	0	0	1
1443	0	0	0
1443	0	0	0
1444	0	0	1
1445	0	0	0
1445	0	0	0
1446	0	0	1
1447	0	0	0
1447	0	0	0
1448	0	0	1
1449	0	0	0
1449	0	0	0
1450	0	0	1
1451	0	0	0
1451	0	0	0
1452	0	0	1
1453	0	0	0
1453	0	0	0
1454	0	0	1
1455	0	0	0
1455	0	0	0
1456	0	0	1
1457	0	0	0
1457	0	0	0
1458	0	0	1
1459	0	0	0
1459	0	0	0
1460	0	0	1
1461	0	0	0
1461	0	0	0
1462	0	0	1
1463	0	0	0
1463	0	0	0
1464	0	0	1
1465	0	0	0
1465	0	0	0
1466	0	0	1
1467	0	0	0
1467	0	0	0
1468	0	0	1
1469	0	0	0
1469	0	0	0
1470	0	0	1
1471	0	0	0
1471	0	0	0
1472	0	0	1
1473	0	0	0
1473	0	0	0
1474	0	0	1
1475	0	0	0
1475	0	0	0
1476	0	0	1
1477	0	0	0
1477	0	0	0
1478	0	0	1
1479	0	0	0
1479	0	0	0
1480	0	0	1
1481	0	0	0
1481	0	0	0
1482	0	0	1
1483	0	0	0
1483	0	0	0
1484	0	0	1
1485	0	0	0
1485	0	0	0
1486	0	0	1
1487	0	0	0
1487	0	0	0
1488	0	0	1
1489	0	0	0
1489	0	0	0
1490	0	0	1
1491	0	0	0
1491	0	0	0
1492	0	0	1
1493	0	0	0
1493	0	0	0
1494	0	0	1
1495	0	0	0
1495	0	0	0
1496	0	0	1
1497	0	0	0
1497	0	0	0
1498	0	0	1
1499	0	0	0
1499	0	0	0
1500	0	0	1
1501	0	0	0
1501	0	0	0
1502	0	0	1
1503	0	0	0
1503	0	0	0
1504	0	0	1
1505	0	0	0
1505	0	0	0
1506	0	0	1
1507	0	0	0
1507	0	0	0
1508	0	0	1
1509	0	0	0
1509	0	0	0
1510	0	0	1
1511	0	0	0
1511	0	0	0
1512	0	0	1
1513	0	0	0
1513	0	0	0
1514	0	0	1
1515	0	0	0
1515	0	0	0
1516	0	0	1
1517	0	0	0
1517	0	0	0
1518	0	0	1
1519	0	0	0
1519	0	0	0
1520	0	0	1
1521	0	0	0
1521	0	0	0
1522	0	0	1
1523	0	0	0
1523	0	0	0
1524	0	0	1
1525	0	0	0
1525	0	0	0
1526	0	0	1
1527	0	0	0
1527	0	0	0
1528	0	0	1
1529	0	0	0
1529	0	0	0
1530	0	0	1
1531	0	0	0
1531	0	0	0
1532	0	0	1
1533	0	0	0
1533	0	0	0
1534	0	0	1
1535	0	0	0
1535	0	0	0
1536	0	0	1
1537	0	0	0
1537	0	0	0
1538	0	0	1
1539	0	0	0
1539	0	0	0
1540	0	0	1
1541	0	0	0
1541	0	0	0
1542	0	0	1
1543	0	0	0
1543	0	0	0
1544	0	0	1
1545	0	0	0
1545	0	0	0
1546	0	0	1
1547	0	0	0
1547	0	0	0
1548	0	0	7
1549	0	0	7
1550	0	0	7
1551	0	0	7
1552	0	0	7
1553	0	0	7
1554	0	0	7
1555	0	0	7
1556	0	0	7
1557	0	0	7
1558	0	0	7
1559	0	0	7
1560	0	0	7
1561	0	0	7
1562	0	0	7
1563	0	0	7
1564	0	0	7
1565	0	0	7
1566	0	0	7
1567	0	0	7
1568	0	0	7
1569	0	0	7
1570	0	0	7
1571	0	0	7
1572	0	0	7
1573	0	0	7
1574	0	0	7
1575	0	0	7
1576	0	0	7
1577	0	0	7
1578	0	0	7
1579	0	0	7
1580	0	0	7
1581	0	0	7
1582	0	0	7
1583	0	0	7
1584	0	0	7
1585	0	0	7
1586	0	0	7
1587	0	0	7
1588	0	0	7
1589	0	0	7
1590	0	0	7
1591	0	0	7
1592	0	0	7
1593	0	0	7
1594	0	0	7
1595	0	0	7
1596	0	0	7
1597	0	0	7
1598	0	0	7
1599	0	0	7
1600	0	0	7
1601	0	0	7
1602	0	0	7
1603	0	0	7
1604	0	0	7
1605	0	0	7
1606	0	0	7
1607	0	0	7
1608	0	0	7
1609	0	0	7
1610	0	0	7
1611	0	0	7
1612	0	0	7
1613	0	0	7
1614	0	0	7
1615	0	0	7
1616	0	0	7
1617	0	0	7
1618	0	0	7
1619	0	0	7
1620	0	0	7
1621	0	0	7
1622	0	0	7
1623	0	0	7
1624	0	0	7
1625	0	0	7
1626	0	0	7
1627	0	0	7
1628	0	0	7
1629	0	0	7
1630	0	0	7
1631	0	0	7
1632	0	0	7
1633	0	0	7
1634	0	0	7
1635	0	0	7
1636	0	0	7
1637	0	0	7
1638	0	0	7
1639	0	0	7
1640	0	0	7
1641	0	0	7
1642	0	0	7
1643	0	0	7

