file 475600 1703229566                                          
version 3
run AeroNetwokMixConnectiom-0-20231222-09:37:32-8305
attr configname AeroNetwokMixConnectiom
attr datetime 20231222-09:37:32
attr datetimef 20231222-093732
attr experiment AeroNetwokMixConnectiom
attr inifile omnetpp.ini
attr iterationvars ""
attr iterationvarsd ""
attr iterationvarsf ""
attr measurement ""
attr network AeroCommNetwork
attr processid 8305
attr repetition 0
attr replication #0
attr resultdir results
attr runnumber 0
attr seedset 0
config debug-on-errors true
config image-path ../../inet4.5/images
config network AeroCommNetwork
config description "Whole World"
config **.numFixedClients 2
config **.numMobileClients 1
config **.numOfAirports 2
config **.numOfAtcArea 2
config **.numOfAtcFir 2
config **.numOfSectors 2
config num-rngs 3
config **.internet.ipv4Delayer.rng-0 1
config **.internet.ipv4Delayer.config "xmldoc(\"internetCloud.xml\")"
config **.configurator.config "xmldoc(\"ContinentalNetwok.xml\")"
config **.atcAgent*.numApps 1
config **.atcAgent*.app[0].typename AcpAgentApp
config **.areaRouter*.app[0].nodeName "\"\""
config **.atmAccessPoint*.wlan[*].mgmt.typename Ieee80211MgmtAp
config **.atmAccessPoint*.wlan[*].radio.transmitter.power 10000mW
config **.atmAccessPoint*.wlan[*].radio.displayCommunicationRange true
config **.atmAccessPoint*.wlan[*].mgmt.beaconInterval 100ms
config **.atmAccessPoint*.wlan[*].radio.transmitter.headerLength 96b
config **.atmAccessPoint*.wlan[*].radio.receiver.sensitivity -85dBm
config **.atmAccessPoint*.wlan[*].radio.receiver.snirThreshold 4dB
config **.atmAccessPoint*.wlan[*].mgmt.ssid "\"SAWAP\""
config **.atmAccessPoint*.wlan[*].radio.channelNumber 2
config **.controller[*].numApps 1
config **.controller[*].app[0].typename AcpClientApp
config **.sector[*].numApps 1
config **.sector[*].app[0].typename AcpClientApp
config **.aircraft[*].numApps 1
config **.aircraft[*].wlan[*].mgmt.typename Ieee80211MgmtSta
config **.aircraft[*].wlan[*].radio.transmitter.power 1000mW
config **.aircraft[*].wlan[*].radio.displayCommunicationRange true
config **.aircraft[*].wlan[*].radio.channelNumber 0
config **.aircraft[*].wlan[*].agent.defaultSsid "\"\""
config **.aircraft[*].wlan[*].agent.activeScan true
config **.aircraft[*].wlan[*].agent.channelsToScan "\"\""
config **.aircraft[*].wlan[*].agent.probeDelay 0.1s
config **.aircraft[*].wlan[*].agent.minChannelTime 0.15s
config **.aircraft[*].wlan[*].agent.maxChannelTime 0.3s
config **.aircraft[*].wlan[*].agent.startingTime 0.00001s
config **.aircraft[*].wlan[*].agent.associationTimeout 5s
config **.aircraft[*].wlan[*].agent.authenticationTimeout 5s
config **.aircraft[*].app[0].typename AcpClientApp
config **.airport[*].aircraft[*].app[0].nodeName "\"\""
config **.airport[*].aircraft[*].app[0].currentDataAuthorityName "\"airport[*].controller[0]\""
config **.airport[*].aircraft[*].app[0].nextDataAuthorityName "\"\""
config **.airport[*].aircraft[*].app[0].atcAgentName "\"airport[*].atcAgent\""
config **.airport[*].aircraft[*].app[0].atcAgentConnAddr "\"airport[*].atcAgent\""
config **.aircraft[*].mobility.typename LinearMobility
config **.aircraft[*].mobility.initFromDisplayString true
config **.aircraft[*].mobility.speed 30mps
config **.aircraft[*].mobility.updateInterval 100ms
config **.aircraft[*].mobility.initialMovementHeading 360deg
config description "Aeronautical Communication Network"
config *.configurator.dumpAddresses true
config *.configurator.dumpTopology true
config *.configurator.dumpLinks true
config *.configurator.dumpRoutes true
config *.*.ipv4.arp.typename GlobalArp
config *.*.ipv4.routingTable.netmaskRoutes "\"\""
config **.forwarding true
config **.mgmt.numChannels 13
config *.*.wlan[*].bitrate 54Mbps
config **.analogModel.ignorePartialInterference true
config **.wlan[*].mac.headerLength 1B
config **.wlan[*].mgmt.numAuthSteps 4
config **.wlan[*].mac.dcf.channelAccess.cwMin 7
config **.constraintAreaMinX 0m
config **.constraintAreaMinY 0m
config **.constraintAreaMinZ 0m
config **.constraintAreaMaxX 100000m
config **.constraintAreaMaxY 100000m
config **.constraintAreaMaxZ 0m
config **.visualizer.routingTableVisualizer.displayRoutingTables true
config **.visualizer.routingTableVisualizer.destinationFilter "\"*\""
config **.visualizer.routingTableVisualizer.lineShift 0
config **.visualizer.routingTableVisualizer.labelFormat "\"\""
config **.visualizer.ieee80211Visualizer.displayAssociations true
config **.visualizer.mediumVisualizer.displaySignals true
config **.visualizer.mediumVisualizer.displaySignalArrivals false
config **.visualizer.mediumVisualizer.displaySignalDepartures false
config **.visualizer.mediumVisualizer.displayReceptions false
config **.visualizer.mediumVisualizer.displayTransmissions false
config **.visualizer.mediumVisualizer.displayCommunicationRanges true
config **.visualizer.mediumVisualizer.displayInterferenceRanges false
config **.visualizer.physicalLinkVisualizer.displayLinks true
config **.visualizer.networkRouteVisualizer.displayRoutes true
config **.visualizer.networkRouteVisualizer.packetFilter "\"LOGON\""
config **.visualizer.networkRouteVisualizer.fadeOutMode "\"simulationTime\""
config **.visualizer.networkRouteVisualizer.fadeOutTime 5s
config **.visualizer.pathVisualizer.displayRoutes true
config **.visualizer.pathVisualizer.fadeOutTime 3s
config **.visualizer.dataLinkVisualizer.displayLinks true
config **.visualizer.dataLinkVisualizer.fadeOutMode "\"simulationTime\""
config **.visualizer.dataLinkVisualizer.fadeOutTime 1.4s
config **.visualizer.dataLinkVisualizer.packetFilter "\"LOGON\""
config **.visualizer.dataLinkVisualizer.nodeFilter "\"*\""
config **.visualizer.interfaceTableVisualizer.displayInterfaceTables true
config **.visualizer.interfaceTableVisualizer.nodeFilter "\"*\""
config **.visualizer.interfaceTableVisualizer.interfaceFilter "\"not lo* and not ipv4Address =~ '<unspec>'\""
config **.visualizer.mobilityVisualizer.animationSpeed 1
config **.visualizer.mobilityVisualizer.displayMovementTrails true
config **.visualizer.mobilityVisualizer.trailLength 50
config **.visualizer.mobilityVisualizer.displayVelocities true
config **.visualizer.mobilityVisualizer.displayOrientations true
config **.visualizer.transportConnectionVisualizer.displayTransportConnections true
config **.visualizer.transportConnectionVisualizer.destinationPortFilter "\"1000\""
config **.visualizer.transportConnectionVisualizer.placementHint "\"topCenter\""
config **.visualizer.transportRouteVisualizer.displayRoutes true
config **.visualizer.transportRouteVisualizer.fadeOutMode "\"simulationTime\""
config **.visualizer.transportRouteVisualizer.fadeOutTime 1.2s
config **.visualizer.transportRouteVisualizer.packetFilter "\"LOGON\""
config **.visualizer.transportRouteVisualizer.nodeFilter "\"*\""
config **.visualizer.packetDropVisualizer.displayPacketDrops false
config **.visualizer.packetDropVisualizer.labelFormat "\"name:%n /reason: %r/class:%c\""
config **.visualizer.packetDropVisualizer.fadeOutTime 3s

vector 0 AeroCommNetwork.internet.ppp[0].ppp transmissionState:vector ETV
attr interpolationmode sample-hold
attr recordingmode vector
attr source transmissionStateChanged
attr title "tx state"
vector 1 AeroCommNetwork.internet.ppp[1].ppp transmissionState:vector ETV
attr interpolationmode sample-hold
attr recordingmode vector
attr source transmissionStateChanged
attr title "tx state"
vector 2 AeroCommNetwork.internet.ppp[2].ppp transmissionState:vector ETV
attr interpolationmode sample-hold
attr recordingmode vector
attr source transmissionStateChanged
attr title "tx state"
vector 3 AeroCommNetwork.internet.ppp[3].ppp transmissionState:vector ETV
attr interpolationmode sample-hold
attr recordingmode vector
attr source transmissionStateChanged
attr title "tx state"
vector 4 AeroCommNetwork.internet.ppp[4].ppp transmissionState:vector ETV
attr interpolationmode sample-hold
attr recordingmode vector
attr source transmissionStateChanged
attr title "tx state"
vector 5 AeroCommNetwork.internet.ppp[5].ppp transmissionState:vector ETV
attr interpolationmode sample-hold
attr recordingmode vector
attr source transmissionStateChanged
attr title "tx state"
vector 6 AeroCommNetwork.africa.backboneRouter.ppp[0].ppp transmissionState:vector ETV
attr interpolationmode sample-hold
attr recordingmode vector
attr source transmissionStateChanged
attr title "tx state"
vector 7 AeroCommNetwork.africa.backboneRouter.ppp[1].ppp transmissionState:vector ETV
attr interpolationmode sample-hold
attr recordingmode vector
attr source transmissionStateChanged
attr title "tx state"
vector 8 AeroCommNetwork.africa.backboneRouter.ppp[2].ppp transmissionState:vector ETV
attr interpolationmode sample-hold
attr recordingmode vector
attr source transmissionStateChanged
attr title "tx state"
vector 9 AeroCommNetwork.africa.AtcFir[0].FirRouter.ppp[0].ppp transmissionState:vector ETV
attr interpolationmode sample-hold
attr recordingmode vector
attr source transmissionStateChanged
attr title "tx state"
vector 10 AeroCommNetwork.africa.AtcFir[0].FirRouter.ppp[1].ppp transmissionState:vector ETV
attr interpolationmode sample-hold
attr recordingmode vector
attr source transmissionStateChanged
attr title "tx state"
vector 11 AeroCommNetwork.africa.AtcFir[0].FirRouter.ppp[2].ppp transmissionState:vector ETV
attr interpolationmode sample-hold
attr recordingmode vector
attr source transmissionStateChanged
attr title "tx state"
vector 12 AeroCommNetwork.africa.AtcFir[0].AtcArea[0].airport[0].controller[0].udp passedUpPk:vector(count) ETV
attr interpolationmode none
attr recordingmode vector(count)
attr source packetSentToUpper
attr title "packets passed up, count"
vector 13 AeroCommNetwork.africa.AtcFir[0].AtcArea[0].airport[0].controller[0].udp droppedPkWrongPort:vector(count) ETV
attr interpolationmode none
attr recordingmode vector(count)
attr source packetDropReasonIsNoPortFound(packetDropped)
attr title "packets dropped (wrong port), count"
vector 14 AeroCommNetwork.africa.AtcFir[0].AtcArea[0].airport[0].controller[0].udp droppedPkBadChecksum:vector(count) ETV
attr interpolationmode none
attr recordingmode vector(count)
attr source packetDropReasonIsIncorrectlyReceived(packetDropped)
attr title "packets dropped (checksum error), count"
vector 15 AeroCommNetwork.africa.AtcFir[0].AtcArea[0].airport[0].controller[1].udp passedUpPk:vector(count) ETV
attr interpolationmode none
attr recordingmode vector(count)
attr source packetSentToUpper
attr title "packets passed up, count"
vector 16 AeroCommNetwork.africa.AtcFir[0].AtcArea[0].airport[0].controller[1].udp droppedPkWrongPort:vector(count) ETV
attr interpolationmode none
attr recordingmode vector(count)
attr source packetDropReasonIsNoPortFound(packetDropped)
attr title "packets dropped (wrong port), count"
vector 17 AeroCommNetwork.africa.AtcFir[0].AtcArea[0].airport[0].controller[1].udp droppedPkBadChecksum:vector(count) ETV
attr interpolationmode none
attr recordingmode vector(count)
attr source packetDropReasonIsIncorrectlyReceived(packetDropped)
attr title "packets dropped (checksum error), count"
vector 18 AeroCommNetwork.africa.AtcFir[0].AtcArea[0].airport[0].aircraft[0].wlan[0].mac.dcf frameSequenceActive:vector ETV
attr autoWarmupFilter false
attr interpolationmode sample-hold
attr recordingmode vector
attr source warmup(count(frameSequenceStarted)-count(frameSequenceFinished))
attr title "frame sequence active"
vector 19 AeroCommNetwork.africa.AtcFir[0].AtcArea[0].airport[0].aircraft[0].wlan[0].mac.dcf.channelAccess.inProgressFrames queueLength:vector ETV
attr autoWarmupFilter false
attr interpolationmode sample-hold
attr recordingmode vector
attr source "warmup(count(packetEnqueued) - count(packetDequeued))"
attr title "queue length"
vector 20 AeroCommNetwork.africa.AtcFir[0].AtcArea[0].airport[0].aircraft[0].wlan[0].mac.dcf.channelAccess.contention backoffActive:vector ETV
attr autoWarmupFilter false
attr interpolationmode sample-hold
attr recordingmode vector
attr source warmup(count(backoffStarted)-count(backoffStopped))
attr title "backoff active"
vector 21 AeroCommNetwork.africa.AtcFir[0].AtcArea[0].airport[0].aircraft[0].udp passedUpPk:vector(count) ETV
attr interpolationmode none
attr recordingmode vector(count)
attr source packetSentToUpper
attr title "packets passed up, count"
vector 22 AeroCommNetwork.africa.AtcFir[0].AtcArea[0].airport[0].aircraft[0].udp droppedPkWrongPort:vector(count) ETV
attr interpolationmode none
attr recordingmode vector(count)
attr source packetDropReasonIsNoPortFound(packetDropped)
attr title "packets dropped (wrong port), count"
vector 23 AeroCommNetwork.africa.AtcFir[0].AtcArea[0].airport[0].aircraft[0].udp droppedPkBadChecksum:vector(count) ETV
attr interpolationmode none
attr recordingmode vector(count)
attr source packetDropReasonIsIncorrectlyReceived(packetDropped)
attr title "packets dropped (checksum error), count"
vector 24 AeroCommNetwork.africa.AtcFir[0].AtcArea[0].airport[0].airportRouter.ppp[0].ppp transmissionState:vector ETV
attr interpolationmode sample-hold
attr recordingmode vector
attr source transmissionStateChanged
attr title "tx state"
vector 25 AeroCommNetwork.africa.AtcFir[0].AtcArea[0].airport[0].atmAccessPoint.wlan[0].mac.dcf frameSequenceActive:vector ETV
attr autoWarmupFilter false
attr interpolationmode sample-hold
attr recordingmode vector
attr source warmup(count(frameSequenceStarted)-count(frameSequenceFinished))
attr title "frame sequence active"
vector 26 AeroCommNetwork.africa.AtcFir[0].AtcArea[0].airport[0].atmAccessPoint.wlan[0].mac.dcf.channelAccess.inProgressFrames queueLength:vector ETV
attr autoWarmupFilter false
attr interpolationmode sample-hold
attr recordingmode vector
attr source "warmup(count(packetEnqueued) - count(packetDequeued))"
attr title "queue length"
vector 27 AeroCommNetwork.africa.AtcFir[0].AtcArea[0].airport[0].atmAccessPoint.wlan[0].mac.dcf.channelAccess.contention backoffActive:vector ETV
attr autoWarmupFilter false
attr interpolationmode sample-hold
attr recordingmode vector
attr source warmup(count(backoffStarted)-count(backoffStopped))
attr title "backoff active"
vector 28 AeroCommNetwork.africa.AtcFir[0].AtcArea[0].airport[1].controller[0].udp passedUpPk:vector(count) ETV
attr interpolationmode none
attr recordingmode vector(count)
attr source packetSentToUpper
attr title "packets passed up, count"
vector 29 AeroCommNetwork.africa.AtcFir[0].AtcArea[0].airport[1].controller[0].udp droppedPkWrongPort:vector(count) ETV
attr interpolationmode none
attr recordingmode vector(count)
attr source packetDropReasonIsNoPortFound(packetDropped)
attr title "packets dropped (wrong port), count"
vector 30 AeroCommNetwork.africa.AtcFir[0].AtcArea[0].airport[1].controller[0].udp droppedPkBadChecksum:vector(count) ETV
attr interpolationmode none
attr recordingmode vector(count)
attr source packetDropReasonIsIncorrectlyReceived(packetDropped)
attr title "packets dropped (checksum error), count"
vector 31 AeroCommNetwork.africa.AtcFir[0].AtcArea[0].airport[1].controller[1].udp passedUpPk:vector(count) ETV
attr interpolationmode none
attr recordingmode vector(count)
attr source packetSentToUpper
attr title "packets passed up, count"
vector 32 AeroCommNetwork.africa.AtcFir[0].AtcArea[0].airport[1].controller[1].udp droppedPkWrongPort:vector(count) ETV
attr interpolationmode none
attr recordingmode vector(count)
attr source packetDropReasonIsNoPortFound(packetDropped)
attr title "packets dropped (wrong port), count"
vector 33 AeroCommNetwork.africa.AtcFir[0].AtcArea[0].airport[1].controller[1].udp droppedPkBadChecksum:vector(count) ETV
attr interpolationmode none
attr recordingmode vector(count)
attr source packetDropReasonIsIncorrectlyReceived(packetDropped)
attr title "packets dropped (checksum error), count"
vector 34 AeroCommNetwork.africa.AtcFir[0].AtcArea[0].airport[1].aircraft[0].wlan[0].mac.dcf frameSequenceActive:vector ETV
attr autoWarmupFilter false
attr interpolationmode sample-hold
attr recordingmode vector
attr source warmup(count(frameSequenceStarted)-count(frameSequenceFinished))
attr title "frame sequence active"
vector 35 AeroCommNetwork.africa.AtcFir[0].AtcArea[0].airport[1].aircraft[0].wlan[0].mac.dcf.channelAccess.inProgressFrames queueLength:vector ETV
attr autoWarmupFilter false
attr interpolationmode sample-hold
attr recordingmode vector
attr source "warmup(count(packetEnqueued) - count(packetDequeued))"
attr title "queue length"
vector 36 AeroCommNetwork.africa.AtcFir[0].AtcArea[0].airport[1].aircraft[0].wlan[0].mac.dcf.channelAccess.contention backoffActive:vector ETV
attr autoWarmupFilter false
attr interpolationmode sample-hold
attr recordingmode vector
attr source warmup(count(backoffStarted)-count(backoffStopped))
attr title "backoff active"
vector 37 AeroCommNetwork.africa.AtcFir[0].AtcArea[0].airport[1].aircraft[0].udp passedUpPk:vector(count) ETV
attr interpolationmode none
attr recordingmode vector(count)
attr source packetSentToUpper
attr title "packets passed up, count"
vector 38 AeroCommNetwork.africa.AtcFir[0].AtcArea[0].airport[1].aircraft[0].udp droppedPkWrongPort:vector(count) ETV
attr interpolationmode none
attr recordingmode vector(count)
attr source packetDropReasonIsNoPortFound(packetDropped)
attr title "packets dropped (wrong port), count"
vector 39 AeroCommNetwork.africa.AtcFir[0].AtcArea[0].airport[1].aircraft[0].udp droppedPkBadChecksum:vector(count) ETV
attr interpolationmode none
attr recordingmode vector(count)
attr source packetDropReasonIsIncorrectlyReceived(packetDropped)
attr title "packets dropped (checksum error), count"
vector 40 AeroCommNetwork.africa.AtcFir[0].AtcArea[0].airport[1].airportRouter.ppp[0].ppp transmissionState:vector ETV
attr interpolationmode sample-hold
attr recordingmode vector
attr source transmissionStateChanged
attr title "tx state"
vector 41 AeroCommNetwork.africa.AtcFir[0].AtcArea[0].airport[1].atmAccessPoint.wlan[0].mac.dcf frameSequenceActive:vector ETV
attr autoWarmupFilter false
attr interpolationmode sample-hold
attr recordingmode vector
attr source warmup(count(frameSequenceStarted)-count(frameSequenceFinished))
attr title "frame sequence active"
vector 42 AeroCommNetwork.africa.AtcFir[0].AtcArea[0].airport[1].atmAccessPoint.wlan[0].mac.dcf.channelAccess.inProgressFrames queueLength:vector ETV
attr autoWarmupFilter false
attr interpolationmode sample-hold
attr recordingmode vector
attr source "warmup(count(packetEnqueued) - count(packetDequeued))"
attr title "queue length"
vector 43 AeroCommNetwork.africa.AtcFir[0].AtcArea[0].airport[1].atmAccessPoint.wlan[0].mac.dcf.channelAccess.contention backoffActive:vector ETV
attr autoWarmupFilter false
attr interpolationmode sample-hold
attr recordingmode vector
attr source warmup(count(backoffStarted)-count(backoffStopped))
attr title "backoff active"
vector 44 AeroCommNetwork.africa.AtcFir[0].AtcArea[0].sector[0].ppp[0].ppp transmissionState:vector ETV
attr interpolationmode sample-hold
attr recordingmode vector
attr source transmissionStateChanged
attr title "tx state"
vector 45 AeroCommNetwork.africa.AtcFir[0].AtcArea[0].sector[0].udp passedUpPk:vector(count) ETV
attr interpolationmode none
attr recordingmode vector(count)
attr source packetSentToUpper
attr title "packets passed up, count"
vector 46 AeroCommNetwork.africa.AtcFir[0].AtcArea[0].sector[0].udp droppedPkWrongPort:vector(count) ETV
attr interpolationmode none
attr recordingmode vector(count)
attr source packetDropReasonIsNoPortFound(packetDropped)
attr title "packets dropped (wrong port), count"
vector 47 AeroCommNetwork.africa.AtcFir[0].AtcArea[0].sector[0].udp droppedPkBadChecksum:vector(count) ETV
attr interpolationmode none
attr recordingmode vector(count)
attr source packetDropReasonIsIncorrectlyReceived(packetDropped)
attr title "packets dropped (checksum error), count"
vector 48 AeroCommNetwork.africa.AtcFir[0].AtcArea[0].sector[1].ppp[0].ppp transmissionState:vector ETV
attr interpolationmode sample-hold
attr recordingmode vector
attr source transmissionStateChanged
attr title "tx state"
vector 49 AeroCommNetwork.africa.AtcFir[0].AtcArea[0].sector[1].udp passedUpPk:vector(count) ETV
attr interpolationmode none
attr recordingmode vector(count)
attr source packetSentToUpper
attr title "packets passed up, count"
vector 50 AeroCommNetwork.africa.AtcFir[0].AtcArea[0].sector[1].udp droppedPkWrongPort:vector(count) ETV
attr interpolationmode none
attr recordingmode vector(count)
attr source packetDropReasonIsNoPortFound(packetDropped)
attr title "packets dropped (wrong port), count"
vector 51 AeroCommNetwork.africa.AtcFir[0].AtcArea[0].sector[1].udp droppedPkBadChecksum:vector(count) ETV
attr interpolationmode none
attr recordingmode vector(count)
attr source packetDropReasonIsIncorrectlyReceived(packetDropped)
attr title "packets dropped (checksum error), count"
vector 52 AeroCommNetwork.africa.AtcFir[0].AtcArea[0].atcAgent.udp passedUpPk:vector(count) ETV
attr interpolationmode none
attr recordingmode vector(count)
attr source packetSentToUpper
attr title "packets passed up, count"
vector 53 AeroCommNetwork.africa.AtcFir[0].AtcArea[0].atcAgent.udp droppedPkWrongPort:vector(count) ETV
attr interpolationmode none
attr recordingmode vector(count)
attr source packetDropReasonIsNoPortFound(packetDropped)
attr title "packets dropped (wrong port), count"
vector 54 AeroCommNetwork.africa.AtcFir[0].AtcArea[0].atcAgent.udp droppedPkBadChecksum:vector(count) ETV
attr interpolationmode none
attr recordingmode vector(count)
attr source packetDropReasonIsIncorrectlyReceived(packetDropped)
attr title "packets dropped (checksum error), count"
vector 55 AeroCommNetwork.africa.AtcFir[0].AtcArea[0].areaRouter.ppp[0].ppp transmissionState:vector ETV
attr interpolationmode sample-hold
attr recordingmode vector
attr source transmissionStateChanged
attr title "tx state"
vector 56 AeroCommNetwork.africa.AtcFir[0].AtcArea[0].areaRouter.ppp[1].ppp transmissionState:vector ETV
attr interpolationmode sample-hold
attr recordingmode vector
attr source transmissionStateChanged
attr title "tx state"
vector 57 AeroCommNetwork.africa.AtcFir[0].AtcArea[0].areaRouter.ppp[2].ppp transmissionState:vector ETV
attr interpolationmode sample-hold
attr recordingmode vector
attr source transmissionStateChanged
attr title "tx state"
vector 58 AeroCommNetwork.africa.AtcFir[0].AtcArea[1].airport[0].controller[0].udp passedUpPk:vector(count) ETV
attr interpolationmode none
attr recordingmode vector(count)
attr source packetSentToUpper
attr title "packets passed up, count"
vector 59 AeroCommNetwork.africa.AtcFir[0].AtcArea[1].airport[0].controller[0].udp droppedPkWrongPort:vector(count) ETV
attr interpolationmode none
attr recordingmode vector(count)
attr source packetDropReasonIsNoPortFound(packetDropped)
attr title "packets dropped (wrong port), count"
vector 60 AeroCommNetwork.africa.AtcFir[0].AtcArea[1].airport[0].controller[0].udp droppedPkBadChecksum:vector(count) ETV
attr interpolationmode none
attr recordingmode vector(count)
attr source packetDropReasonIsIncorrectlyReceived(packetDropped)
attr title "packets dropped (checksum error), count"
vector 61 AeroCommNetwork.africa.AtcFir[0].AtcArea[1].airport[0].controller[1].udp passedUpPk:vector(count) ETV
attr interpolationmode none
attr recordingmode vector(count)
attr source packetSentToUpper
attr title "packets passed up, count"
vector 62 AeroCommNetwork.africa.AtcFir[0].AtcArea[1].airport[0].controller[1].udp droppedPkWrongPort:vector(count) ETV
attr interpolationmode none
attr recordingmode vector(count)
attr source packetDropReasonIsNoPortFound(packetDropped)
attr title "packets dropped (wrong port), count"
vector 63 AeroCommNetwork.africa.AtcFir[0].AtcArea[1].airport[0].controller[1].udp droppedPkBadChecksum:vector(count) ETV
attr interpolationmode none
attr recordingmode vector(count)
attr source packetDropReasonIsIncorrectlyReceived(packetDropped)
attr title "packets dropped (checksum error), count"
vector 64 AeroCommNetwork.africa.AtcFir[0].AtcArea[1].airport[0].aircraft[0].wlan[0].mac.dcf frameSequenceActive:vector ETV
attr autoWarmupFilter false
attr interpolationmode sample-hold
attr recordingmode vector
attr source warmup(count(frameSequenceStarted)-count(frameSequenceFinished))
attr title "frame sequence active"
vector 65 AeroCommNetwork.africa.AtcFir[0].AtcArea[1].airport[0].aircraft[0].wlan[0].mac.dcf.channelAccess.inProgressFrames queueLength:vector ETV
attr autoWarmupFilter false
attr interpolationmode sample-hold
attr recordingmode vector
attr source "warmup(count(packetEnqueued) - count(packetDequeued))"
attr title "queue length"
vector 66 AeroCommNetwork.africa.AtcFir[0].AtcArea[1].airport[0].aircraft[0].wlan[0].mac.dcf.channelAccess.contention backoffActive:vector ETV
attr autoWarmupFilter false
attr interpolationmode sample-hold
attr recordingmode vector
attr source warmup(count(backoffStarted)-count(backoffStopped))
attr title "backoff active"
vector 67 AeroCommNetwork.africa.AtcFir[0].AtcArea[1].airport[0].aircraft[0].udp passedUpPk:vector(count) ETV
attr interpolationmode none
attr recordingmode vector(count)
attr source packetSentToUpper
attr title "packets passed up, count"
vector 68 AeroCommNetwork.africa.AtcFir[0].AtcArea[1].airport[0].aircraft[0].udp droppedPkWrongPort:vector(count) ETV
attr interpolationmode none
attr recordingmode vector(count)
attr source packetDropReasonIsNoPortFound(packetDropped)
attr title "packets dropped (wrong port), count"
vector 69 AeroCommNetwork.africa.AtcFir[0].AtcArea[1].airport[0].aircraft[0].udp droppedPkBadChecksum:vector(count) ETV
attr interpolationmode none
attr recordingmode vector(count)
attr source packetDropReasonIsIncorrectlyReceived(packetDropped)
attr title "packets dropped (checksum error), count"
vector 70 AeroCommNetwork.africa.AtcFir[0].AtcArea[1].airport[0].airportRouter.ppp[0].ppp transmissionState:vector ETV
attr interpolationmode sample-hold
attr recordingmode vector
attr source transmissionStateChanged
attr title "tx state"
vector 71 AeroCommNetwork.africa.AtcFir[0].AtcArea[1].airport[0].atmAccessPoint.wlan[0].mac.dcf frameSequenceActive:vector ETV
attr autoWarmupFilter false
attr interpolationmode sample-hold
attr recordingmode vector
attr source warmup(count(frameSequenceStarted)-count(frameSequenceFinished))
attr title "frame sequence active"
vector 72 AeroCommNetwork.africa.AtcFir[0].AtcArea[1].airport[0].atmAccessPoint.wlan[0].mac.dcf.channelAccess.inProgressFrames queueLength:vector ETV
attr autoWarmupFilter false
attr interpolationmode sample-hold
attr recordingmode vector
attr source "warmup(count(packetEnqueued) - count(packetDequeued))"
attr title "queue length"
vector 73 AeroCommNetwork.africa.AtcFir[0].AtcArea[1].airport[0].atmAccessPoint.wlan[0].mac.dcf.channelAccess.contention backoffActive:vector ETV
attr autoWarmupFilter false
attr interpolationmode sample-hold
attr recordingmode vector
attr source warmup(count(backoffStarted)-count(backoffStopped))
attr title "backoff active"
vector 74 AeroCommNetwork.africa.AtcFir[0].AtcArea[1].airport[1].controller[0].udp passedUpPk:vector(count) ETV
attr interpolationmode none
attr recordingmode vector(count)
attr source packetSentToUpper
attr title "packets passed up, count"
vector 75 AeroCommNetwork.africa.AtcFir[0].AtcArea[1].airport[1].controller[0].udp droppedPkWrongPort:vector(count) ETV
attr interpolationmode none
attr recordingmode vector(count)
attr source packetDropReasonIsNoPortFound(packetDropped)
attr title "packets dropped (wrong port), count"
vector 76 AeroCommNetwork.africa.AtcFir[0].AtcArea[1].airport[1].controller[0].udp droppedPkBadChecksum:vector(count) ETV
attr interpolationmode none
attr recordingmode vector(count)
attr source packetDropReasonIsIncorrectlyReceived(packetDropped)
attr title "packets dropped (checksum error), count"
vector 77 AeroCommNetwork.africa.AtcFir[0].AtcArea[1].airport[1].controller[1].udp passedUpPk:vector(count) ETV
attr interpolationmode none
attr recordingmode vector(count)
attr source packetSentToUpper
attr title "packets passed up, count"
vector 78 AeroCommNetwork.africa.AtcFir[0].AtcArea[1].airport[1].controller[1].udp droppedPkWrongPort:vector(count) ETV
attr interpolationmode none
attr recordingmode vector(count)
attr source packetDropReasonIsNoPortFound(packetDropped)
attr title "packets dropped (wrong port), count"
vector 79 AeroCommNetwork.africa.AtcFir[0].AtcArea[1].airport[1].controller[1].udp droppedPkBadChecksum:vector(count) ETV
attr interpolationmode none
attr recordingmode vector(count)
attr source packetDropReasonIsIncorrectlyReceived(packetDropped)
attr title "packets dropped (checksum error), count"
vector 80 AeroCommNetwork.africa.AtcFir[0].AtcArea[1].airport[1].aircraft[0].wlan[0].mac.dcf frameSequenceActive:vector ETV
attr autoWarmupFilter false
attr interpolationmode sample-hold
attr recordingmode vector
attr source warmup(count(frameSequenceStarted)-count(frameSequenceFinished))
attr title "frame sequence active"
vector 81 AeroCommNetwork.africa.AtcFir[0].AtcArea[1].airport[1].aircraft[0].wlan[0].mac.dcf.channelAccess.inProgressFrames queueLength:vector ETV
attr autoWarmupFilter false
attr interpolationmode sample-hold
attr recordingmode vector
attr source "warmup(count(packetEnqueued) - count(packetDequeued))"
attr title "queue length"
vector 82 AeroCommNetwork.africa.AtcFir[0].AtcArea[1].airport[1].aircraft[0].wlan[0].mac.dcf.channelAccess.contention backoffActive:vector ETV
attr autoWarmupFilter false
attr interpolationmode sample-hold
attr recordingmode vector
attr source warmup(count(backoffStarted)-count(backoffStopped))
attr title "backoff active"
vector 83 AeroCommNetwork.africa.AtcFir[0].AtcArea[1].airport[1].aircraft[0].udp passedUpPk:vector(count) ETV
attr interpolationmode none
attr recordingmode vector(count)
attr source packetSentToUpper
attr title "packets passed up, count"
vector 84 AeroCommNetwork.africa.AtcFir[0].AtcArea[1].airport[1].aircraft[0].udp droppedPkWrongPort:vector(count) ETV
attr interpolationmode none
attr recordingmode vector(count)
attr source packetDropReasonIsNoPortFound(packetDropped)
attr title "packets dropped (wrong port), count"
vector 85 AeroCommNetwork.africa.AtcFir[0].AtcArea[1].airport[1].aircraft[0].udp droppedPkBadChecksum:vector(count) ETV
attr interpolationmode none
attr recordingmode vector(count)
attr source packetDropReasonIsIncorrectlyReceived(packetDropped)
attr title "packets dropped (checksum error), count"
vector 86 AeroCommNetwork.africa.AtcFir[0].AtcArea[1].airport[1].airportRouter.ppp[0].ppp transmissionState:vector ETV
attr interpolationmode sample-hold
attr recordingmode vector
attr source transmissionStateChanged
attr title "tx state"
vector 87 AeroCommNetwork.africa.AtcFir[0].AtcArea[1].airport[1].atmAccessPoint.wlan[0].mac.dcf frameSequenceActive:vector ETV
attr autoWarmupFilter false
attr interpolationmode sample-hold
attr recordingmode vector
attr source warmup(count(frameSequenceStarted)-count(frameSequenceFinished))
attr title "frame sequence active"
vector 88 AeroCommNetwork.africa.AtcFir[0].AtcArea[1].airport[1].atmAccessPoint.wlan[0].mac.dcf.channelAccess.inProgressFrames queueLength:vector ETV
attr autoWarmupFilter false
attr interpolationmode sample-hold
attr recordingmode vector
attr source "warmup(count(packetEnqueued) - count(packetDequeued))"
attr title "queue length"
vector 89 AeroCommNetwork.africa.AtcFir[0].AtcArea[1].airport[1].atmAccessPoint.wlan[0].mac.dcf.channelAccess.contention backoffActive:vector ETV
attr autoWarmupFilter false
attr interpolationmode sample-hold
attr recordingmode vector
attr source warmup(count(backoffStarted)-count(backoffStopped))
attr title "backoff active"
vector 90 AeroCommNetwork.africa.AtcFir[0].AtcArea[1].sector[0].ppp[0].ppp transmissionState:vector ETV
attr interpolationmode sample-hold
attr recordingmode vector
attr source transmissionStateChanged
attr title "tx state"
vector 91 AeroCommNetwork.africa.AtcFir[0].AtcArea[1].sector[0].udp passedUpPk:vector(count) ETV
attr interpolationmode none
attr recordingmode vector(count)
attr source packetSentToUpper
attr title "packets passed up, count"
vector 92 AeroCommNetwork.africa.AtcFir[0].AtcArea[1].sector[0].udp droppedPkWrongPort:vector(count) ETV
attr interpolationmode none
attr recordingmode vector(count)
attr source packetDropReasonIsNoPortFound(packetDropped)
attr title "packets dropped (wrong port), count"
vector 93 AeroCommNetwork.africa.AtcFir[0].AtcArea[1].sector[0].udp droppedPkBadChecksum:vector(count) ETV
attr interpolationmode none
attr recordingmode vector(count)
attr source packetDropReasonIsIncorrectlyReceived(packetDropped)
attr title "packets dropped (checksum error), count"
vector 94 AeroCommNetwork.africa.AtcFir[0].AtcArea[1].sector[1].ppp[0].ppp transmissionState:vector ETV
attr interpolationmode sample-hold
attr recordingmode vector
attr source transmissionStateChanged
attr title "tx state"
vector 95 AeroCommNetwork.africa.AtcFir[0].AtcArea[1].sector[1].udp passedUpPk:vector(count) ETV
attr interpolationmode none
attr recordingmode vector(count)
attr source packetSentToUpper
attr title "packets passed up, count"
vector 96 AeroCommNetwork.africa.AtcFir[0].AtcArea[1].sector[1].udp droppedPkWrongPort:vector(count) ETV
attr interpolationmode none
attr recordingmode vector(count)
attr source packetDropReasonIsNoPortFound(packetDropped)
attr title "packets dropped (wrong port), count"
vector 97 AeroCommNetwork.africa.AtcFir[0].AtcArea[1].sector[1].udp droppedPkBadChecksum:vector(count) ETV
attr interpolationmode none
attr recordingmode vector(count)
attr source packetDropReasonIsIncorrectlyReceived(packetDropped)
attr title "packets dropped (checksum error), count"
vector 98 AeroCommNetwork.africa.AtcFir[0].AtcArea[1].atcAgent.udp passedUpPk:vector(count) ETV
attr interpolationmode none
attr recordingmode vector(count)
attr source packetSentToUpper
attr title "packets passed up, count"
vector 99 AeroCommNetwork.africa.AtcFir[0].AtcArea[1].atcAgent.udp droppedPkWrongPort:vector(count) ETV
attr interpolationmode none
attr recordingmode vector(count)
attr source packetDropReasonIsNoPortFound(packetDropped)
attr title "packets dropped (wrong port), count"
vector 100 AeroCommNetwork.africa.AtcFir[0].AtcArea[1].atcAgent.udp droppedPkBadChecksum:vector(count) ETV
attr interpolationmode none
attr recordingmode vector(count)
attr source packetDropReasonIsIncorrectlyReceived(packetDropped)
attr title "packets dropped (checksum error), count"
vector 101 AeroCommNetwork.africa.AtcFir[0].AtcArea[1].areaRouter.ppp[0].ppp transmissionState:vector ETV
attr interpolationmode sample-hold
attr recordingmode vector
attr source transmissionStateChanged
attr title "tx state"
vector 102 AeroCommNetwork.africa.AtcFir[0].AtcArea[1].areaRouter.ppp[1].ppp transmissionState:vector ETV
attr interpolationmode sample-hold
attr recordingmode vector
attr source transmissionStateChanged
attr title "tx state"
vector 103 AeroCommNetwork.africa.AtcFir[0].AtcArea[1].areaRouter.ppp[2].ppp transmissionState:vector ETV
attr interpolationmode sample-hold
attr recordingmode vector
attr source transmissionStateChanged
attr title "tx state"
vector 104 AeroCommNetwork.africa.AtcFir[1].FirRouter.ppp[0].ppp transmissionState:vector ETV
attr interpolationmode sample-hold
attr recordingmode vector
attr source transmissionStateChanged
attr title "tx state"
vector 105 AeroCommNetwork.africa.AtcFir[1].FirRouter.ppp[1].ppp transmissionState:vector ETV
attr interpolationmode sample-hold
attr recordingmode vector
attr source transmissionStateChanged
attr title "tx state"
vector 106 AeroCommNetwork.africa.AtcFir[1].FirRouter.ppp[2].ppp transmissionState:vector ETV
attr interpolationmode sample-hold
attr recordingmode vector
attr source transmissionStateChanged
attr title "tx state"
vector 107 AeroCommNetwork.africa.AtcFir[1].AtcArea[0].airport[0].controller[0].udp passedUpPk:vector(count) ETV
attr interpolationmode none
attr recordingmode vector(count)
attr source packetSentToUpper
attr title "packets passed up, count"
vector 108 AeroCommNetwork.africa.AtcFir[1].AtcArea[0].airport[0].controller[0].udp droppedPkWrongPort:vector(count) ETV
attr interpolationmode none
attr recordingmode vector(count)
attr source packetDropReasonIsNoPortFound(packetDropped)
attr title "packets dropped (wrong port), count"
vector 109 AeroCommNetwork.africa.AtcFir[1].AtcArea[0].airport[0].controller[0].udp droppedPkBadChecksum:vector(count) ETV
attr interpolationmode none
attr recordingmode vector(count)
attr source packetDropReasonIsIncorrectlyReceived(packetDropped)
attr title "packets dropped (checksum error), count"
vector 110 AeroCommNetwork.africa.AtcFir[1].AtcArea[0].airport[0].controller[1].udp passedUpPk:vector(count) ETV
attr interpolationmode none
attr recordingmode vector(count)
attr source packetSentToUpper
attr title "packets passed up, count"
vector 111 AeroCommNetwork.africa.AtcFir[1].AtcArea[0].airport[0].controller[1].udp droppedPkWrongPort:vector(count) ETV
attr interpolationmode none
attr recordingmode vector(count)
attr source packetDropReasonIsNoPortFound(packetDropped)
attr title "packets dropped (wrong port), count"
vector 112 AeroCommNetwork.africa.AtcFir[1].AtcArea[0].airport[0].controller[1].udp droppedPkBadChecksum:vector(count) ETV
attr interpolationmode none
attr recordingmode vector(count)
attr source packetDropReasonIsIncorrectlyReceived(packetDropped)
attr title "packets dropped (checksum error), count"
vector 113 AeroCommNetwork.africa.AtcFir[1].AtcArea[0].airport[0].aircraft[0].wlan[0].mac.dcf frameSequenceActive:vector ETV
attr autoWarmupFilter false
attr interpolationmode sample-hold
attr recordingmode vector
attr source warmup(count(frameSequenceStarted)-count(frameSequenceFinished))
attr title "frame sequence active"
vector 114 AeroCommNetwork.africa.AtcFir[1].AtcArea[0].airport[0].aircraft[0].wlan[0].mac.dcf.channelAccess.inProgressFrames queueLength:vector ETV
attr autoWarmupFilter false
attr interpolationmode sample-hold
attr recordingmode vector
attr source "warmup(count(packetEnqueued) - count(packetDequeued))"
attr title "queue length"
vector 115 AeroCommNetwork.africa.AtcFir[1].AtcArea[0].airport[0].aircraft[0].wlan[0].mac.dcf.channelAccess.contention backoffActive:vector ETV
attr autoWarmupFilter false
attr interpolationmode sample-hold
attr recordingmode vector
attr source warmup(count(backoffStarted)-count(backoffStopped))
attr title "backoff active"
vector 116 AeroCommNetwork.africa.AtcFir[1].AtcArea[0].airport[0].aircraft[0].udp passedUpPk:vector(count) ETV
attr interpolationmode none
attr recordingmode vector(count)
attr source packetSentToUpper
attr title "packets passed up, count"
vector 117 AeroCommNetwork.africa.AtcFir[1].AtcArea[0].airport[0].aircraft[0].udp droppedPkWrongPort:vector(count) ETV
attr interpolationmode none
attr recordingmode vector(count)
attr source packetDropReasonIsNoPortFound(packetDropped)
attr title "packets dropped (wrong port), count"
vector 118 AeroCommNetwork.africa.AtcFir[1].AtcArea[0].airport[0].aircraft[0].udp droppedPkBadChecksum:vector(count) ETV
attr interpolationmode none
attr recordingmode vector(count)
attr source packetDropReasonIsIncorrectlyReceived(packetDropped)
attr title "packets dropped (checksum error), count"
vector 119 AeroCommNetwork.africa.AtcFir[1].AtcArea[0].airport[0].airportRouter.ppp[0].ppp transmissionState:vector ETV
attr interpolationmode sample-hold
attr recordingmode vector
attr source transmissionStateChanged
attr title "tx state"
vector 120 AeroCommNetwork.africa.AtcFir[1].AtcArea[0].airport[0].atmAccessPoint.wlan[0].mac.dcf frameSequenceActive:vector ETV
attr autoWarmupFilter false
attr interpolationmode sample-hold
attr recordingmode vector
attr source warmup(count(frameSequenceStarted)-count(frameSequenceFinished))
attr title "frame sequence active"
vector 121 AeroCommNetwork.africa.AtcFir[1].AtcArea[0].airport[0].atmAccessPoint.wlan[0].mac.dcf.channelAccess.inProgressFrames queueLength:vector ETV
attr autoWarmupFilter false
attr interpolationmode sample-hold
attr recordingmode vector
attr source "warmup(count(packetEnqueued) - count(packetDequeued))"
attr title "queue length"
vector 122 AeroCommNetwork.africa.AtcFir[1].AtcArea[0].airport[0].atmAccessPoint.wlan[0].mac.dcf.channelAccess.contention backoffActive:vector ETV
attr autoWarmupFilter false
attr interpolationmode sample-hold
attr recordingmode vector
attr source warmup(count(backoffStarted)-count(backoffStopped))
attr title "backoff active"
vector 123 AeroCommNetwork.africa.AtcFir[1].AtcArea[0].airport[1].controller[0].udp passedUpPk:vector(count) ETV
attr interpolationmode none
attr recordingmode vector(count)
attr source packetSentToUpper
attr title "packets passed up, count"
vector 124 AeroCommNetwork.africa.AtcFir[1].AtcArea[0].airport[1].controller[0].udp droppedPkWrongPort:vector(count) ETV
attr interpolationmode none
attr recordingmode vector(count)
attr source packetDropReasonIsNoPortFound(packetDropped)
attr title "packets dropped (wrong port), count"
vector 125 AeroCommNetwork.africa.AtcFir[1].AtcArea[0].airport[1].controller[0].udp droppedPkBadChecksum:vector(count) ETV
attr interpolationmode none
attr recordingmode vector(count)
attr source packetDropReasonIsIncorrectlyReceived(packetDropped)
attr title "packets dropped (checksum error), count"
vector 126 AeroCommNetwork.africa.AtcFir[1].AtcArea[0].airport[1].controller[1].udp passedUpPk:vector(count) ETV
attr interpolationmode none
attr recordingmode vector(count)
attr source packetSentToUpper
attr title "packets passed up, count"
vector 127 AeroCommNetwork.africa.AtcFir[1].AtcArea[0].airport[1].controller[1].udp droppedPkWrongPort:vector(count) ETV
attr interpolationmode none
attr recordingmode vector(count)
attr source packetDropReasonIsNoPortFound(packetDropped)
attr title "packets dropped (wrong port), count"
vector 128 AeroCommNetwork.africa.AtcFir[1].AtcArea[0].airport[1].controller[1].udp droppedPkBadChecksum:vector(count) ETV
attr interpolationmode none
attr recordingmode vector(count)
attr source packetDropReasonIsIncorrectlyReceived(packetDropped)
attr title "packets dropped (checksum error), count"
vector 129 AeroCommNetwork.africa.AtcFir[1].AtcArea[0].airport[1].aircraft[0].wlan[0].mac.dcf frameSequenceActive:vector ETV
attr autoWarmupFilter false
attr interpolationmode sample-hold
attr recordingmode vector
attr source warmup(count(frameSequenceStarted)-count(frameSequenceFinished))
attr title "frame sequence active"
vector 130 AeroCommNetwork.africa.AtcFir[1].AtcArea[0].airport[1].aircraft[0].wlan[0].mac.dcf.channelAccess.inProgressFrames queueLength:vector ETV
attr autoWarmupFilter false
attr interpolationmode sample-hold
attr recordingmode vector
attr source "warmup(count(packetEnqueued) - count(packetDequeued))"
attr title "queue length"
vector 131 AeroCommNetwork.africa.AtcFir[1].AtcArea[0].airport[1].aircraft[0].wlan[0].mac.dcf.channelAccess.contention backoffActive:vector ETV
attr autoWarmupFilter false
attr interpolationmode sample-hold
attr recordingmode vector
attr source warmup(count(backoffStarted)-count(backoffStopped))
attr title "backoff active"
vector 132 AeroCommNetwork.africa.AtcFir[1].AtcArea[0].airport[1].aircraft[0].udp passedUpPk:vector(count) ETV
attr interpolationmode none
attr recordingmode vector(count)
attr source packetSentToUpper
attr title "packets passed up, count"
vector 133 AeroCommNetwork.africa.AtcFir[1].AtcArea[0].airport[1].aircraft[0].udp droppedPkWrongPort:vector(count) ETV
attr interpolationmode none
attr recordingmode vector(count)
attr source packetDropReasonIsNoPortFound(packetDropped)
attr title "packets dropped (wrong port), count"
vector 134 AeroCommNetwork.africa.AtcFir[1].AtcArea[0].airport[1].aircraft[0].udp droppedPkBadChecksum:vector(count) ETV
attr interpolationmode none
attr recordingmode vector(count)
attr source packetDropReasonIsIncorrectlyReceived(packetDropped)
attr title "packets dropped (checksum error), count"
vector 135 AeroCommNetwork.africa.AtcFir[1].AtcArea[0].airport[1].airportRouter.ppp[0].ppp transmissionState:vector ETV
attr interpolationmode sample-hold
attr recordingmode vector
attr source transmissionStateChanged
attr title "tx state"
vector 136 AeroCommNetwork.africa.AtcFir[1].AtcArea[0].airport[1].atmAccessPoint.wlan[0].mac.dcf frameSequenceActive:vector ETV
attr autoWarmupFilter false
attr interpolationmode sample-hold
attr recordingmode vector
attr source warmup(count(frameSequenceStarted)-count(frameSequenceFinished))
attr title "frame sequence active"
vector 137 AeroCommNetwork.africa.AtcFir[1].AtcArea[0].airport[1].atmAccessPoint.wlan[0].mac.dcf.channelAccess.inProgressFrames queueLength:vector ETV
attr autoWarmupFilter false
attr interpolationmode sample-hold
attr recordingmode vector
attr source "warmup(count(packetEnqueued) - count(packetDequeued))"
attr title "queue length"
vector 138 AeroCommNetwork.africa.AtcFir[1].AtcArea[0].airport[1].atmAccessPoint.wlan[0].mac.dcf.channelAccess.contention backoffActive:vector ETV
attr autoWarmupFilter false
attr interpolationmode sample-hold
attr recordingmode vector
attr source warmup(count(backoffStarted)-count(backoffStopped))
attr title "backoff active"
vector 139 AeroCommNetwork.africa.AtcFir[1].AtcArea[0].sector[0].ppp[0].ppp transmissionState:vector ETV
attr interpolationmode sample-hold
attr recordingmode vector
attr source transmissionStateChanged
attr title "tx state"
vector 140 AeroCommNetwork.africa.AtcFir[1].AtcArea[0].sector[0].udp passedUpPk:vector(count) ETV
attr interpolationmode none
attr recordingmode vector(count)
attr source packetSentToUpper
attr title "packets passed up, count"
vector 141 AeroCommNetwork.africa.AtcFir[1].AtcArea[0].sector[0].udp droppedPkWrongPort:vector(count) ETV
attr interpolationmode none
attr recordingmode vector(count)
attr source packetDropReasonIsNoPortFound(packetDropped)
attr title "packets dropped (wrong port), count"
vector 142 AeroCommNetwork.africa.AtcFir[1].AtcArea[0].sector[0].udp droppedPkBadChecksum:vector(count) ETV
attr interpolationmode none
attr recordingmode vector(count)
attr source packetDropReasonIsIncorrectlyReceived(packetDropped)
attr title "packets dropped (checksum error), count"
vector 143 AeroCommNetwork.africa.AtcFir[1].AtcArea[0].sector[1].ppp[0].ppp transmissionState:vector ETV
attr interpolationmode sample-hold
attr recordingmode vector
attr source transmissionStateChanged
attr title "tx state"
vector 144 AeroCommNetwork.africa.AtcFir[1].AtcArea[0].sector[1].udp passedUpPk:vector(count) ETV
attr interpolationmode none
attr recordingmode vector(count)
attr source packetSentToUpper
attr title "packets passed up, count"
vector 145 AeroCommNetwork.africa.AtcFir[1].AtcArea[0].sector[1].udp droppedPkWrongPort:vector(count) ETV
attr interpolationmode none
attr recordingmode vector(count)
attr source packetDropReasonIsNoPortFound(packetDropped)
attr title "packets dropped (wrong port), count"
vector 146 AeroCommNetwork.africa.AtcFir[1].AtcArea[0].sector[1].udp droppedPkBadChecksum:vector(count) ETV
attr interpolationmode none
attr recordingmode vector(count)
attr source packetDropReasonIsIncorrectlyReceived(packetDropped)
attr title "packets dropped (checksum error), count"
vector 147 AeroCommNetwork.africa.AtcFir[1].AtcArea[0].atcAgent.udp passedUpPk:vector(count) ETV
attr interpolationmode none
attr recordingmode vector(count)
attr source packetSentToUpper
attr title "packets passed up, count"
vector 148 AeroCommNetwork.africa.AtcFir[1].AtcArea[0].atcAgent.udp droppedPkWrongPort:vector(count) ETV
attr interpolationmode none
attr recordingmode vector(count)
attr source packetDropReasonIsNoPortFound(packetDropped)
attr title "packets dropped (wrong port), count"
vector 149 AeroCommNetwork.africa.AtcFir[1].AtcArea[0].atcAgent.udp droppedPkBadChecksum:vector(count) ETV
attr interpolationmode none
attr recordingmode vector(count)
attr source packetDropReasonIsIncorrectlyReceived(packetDropped)
attr title "packets dropped (checksum error), count"
vector 150 AeroCommNetwork.africa.AtcFir[1].AtcArea[0].areaRouter.ppp[0].ppp transmissionState:vector ETV
attr interpolationmode sample-hold
attr recordingmode vector
attr source transmissionStateChanged
attr title "tx state"
vector 151 AeroCommNetwork.africa.AtcFir[1].AtcArea[0].areaRouter.ppp[1].ppp transmissionState:vector ETV
attr interpolationmode sample-hold
attr recordingmode vector
attr source transmissionStateChanged
attr title "tx state"
vector 152 AeroCommNetwork.africa.AtcFir[1].AtcArea[0].areaRouter.ppp[2].ppp transmissionState:vector ETV
attr interpolationmode sample-hold
attr recordingmode vector
attr source transmissionStateChanged
attr title "tx state"
vector 153 AeroCommNetwork.africa.AtcFir[1].AtcArea[1].airport[0].controller[0].udp passedUpPk:vector(count) ETV
attr interpolationmode none
attr recordingmode vector(count)
attr source packetSentToUpper
attr title "packets passed up, count"
vector 154 AeroCommNetwork.africa.AtcFir[1].AtcArea[1].airport[0].controller[0].udp droppedPkWrongPort:vector(count) ETV
attr interpolationmode none
attr recordingmode vector(count)
attr source packetDropReasonIsNoPortFound(packetDropped)
attr title "packets dropped (wrong port), count"
vector 155 AeroCommNetwork.africa.AtcFir[1].AtcArea[1].airport[0].controller[0].udp droppedPkBadChecksum:vector(count) ETV
attr interpolationmode none
attr recordingmode vector(count)
attr source packetDropReasonIsIncorrectlyReceived(packetDropped)
attr title "packets dropped (checksum error), count"
vector 156 AeroCommNetwork.africa.AtcFir[1].AtcArea[1].airport[0].controller[1].udp passedUpPk:vector(count) ETV
attr interpolationmode none
attr recordingmode vector(count)
attr source packetSentToUpper
attr title "packets passed up, count"
vector 157 AeroCommNetwork.africa.AtcFir[1].AtcArea[1].airport[0].controller[1].udp droppedPkWrongPort:vector(count) ETV
attr interpolationmode none
attr recordingmode vector(count)
attr source packetDropReasonIsNoPortFound(packetDropped)
attr title "packets dropped (wrong port), count"
vector 158 AeroCommNetwork.africa.AtcFir[1].AtcArea[1].airport[0].controller[1].udp droppedPkBadChecksum:vector(count) ETV
attr interpolationmode none
attr recordingmode vector(count)
attr source packetDropReasonIsIncorrectlyReceived(packetDropped)
attr title "packets dropped (checksum error), count"
vector 159 AeroCommNetwork.africa.AtcFir[1].AtcArea[1].airport[0].aircraft[0].wlan[0].mac.dcf frameSequenceActive:vector ETV
attr autoWarmupFilter false
attr interpolationmode sample-hold
attr recordingmode vector
attr source warmup(count(frameSequenceStarted)-count(frameSequenceFinished))
attr title "frame sequence active"
vector 160 AeroCommNetwork.africa.AtcFir[1].AtcArea[1].airport[0].aircraft[0].wlan[0].mac.dcf.channelAccess.inProgressFrames queueLength:vector ETV
attr autoWarmupFilter false
attr interpolationmode sample-hold
attr recordingmode vector
attr source "warmup(count(packetEnqueued) - count(packetDequeued))"
attr title "queue length"
vector 161 AeroCommNetwork.africa.AtcFir[1].AtcArea[1].airport[0].aircraft[0].wlan[0].mac.dcf.channelAccess.contention backoffActive:vector ETV
attr autoWarmupFilter false
attr interpolationmode sample-hold
attr recordingmode vector
attr source warmup(count(backoffStarted)-count(backoffStopped))
attr title "backoff active"
vector 162 AeroCommNetwork.africa.AtcFir[1].AtcArea[1].airport[0].aircraft[0].udp passedUpPk:vector(count) ETV
attr interpolationmode none
attr recordingmode vector(count)
attr source packetSentToUpper
attr title "packets passed up, count"
vector 163 AeroCommNetwork.africa.AtcFir[1].AtcArea[1].airport[0].aircraft[0].udp droppedPkWrongPort:vector(count) ETV
attr interpolationmode none
attr recordingmode vector(count)
attr source packetDropReasonIsNoPortFound(packetDropped)
attr title "packets dropped (wrong port), count"
vector 164 AeroCommNetwork.africa.AtcFir[1].AtcArea[1].airport[0].aircraft[0].udp droppedPkBadChecksum:vector(count) ETV
attr interpolationmode none
attr recordingmode vector(count)
attr source packetDropReasonIsIncorrectlyReceived(packetDropped)
attr title "packets dropped (checksum error), count"
vector 165 AeroCommNetwork.africa.AtcFir[1].AtcArea[1].airport[0].airportRouter.ppp[0].ppp transmissionState:vector ETV
attr interpolationmode sample-hold
attr recordingmode vector
attr source transmissionStateChanged
attr title "tx state"
vector 166 AeroCommNetwork.africa.AtcFir[1].AtcArea[1].airport[0].atmAccessPoint.wlan[0].mac.dcf frameSequenceActive:vector ETV
attr autoWarmupFilter false
attr interpolationmode sample-hold
attr recordingmode vector
attr source warmup(count(frameSequenceStarted)-count(frameSequenceFinished))
attr title "frame sequence active"
vector 167 AeroCommNetwork.africa.AtcFir[1].AtcArea[1].airport[0].atmAccessPoint.wlan[0].mac.dcf.channelAccess.inProgressFrames queueLength:vector ETV
attr autoWarmupFilter false
attr interpolationmode sample-hold
attr recordingmode vector
attr source "warmup(count(packetEnqueued) - count(packetDequeued))"
attr title "queue length"
vector 168 AeroCommNetwork.africa.AtcFir[1].AtcArea[1].airport[0].atmAccessPoint.wlan[0].mac.dcf.channelAccess.contention backoffActive:vector ETV
attr autoWarmupFilter false
attr interpolationmode sample-hold
attr recordingmode vector
attr source warmup(count(backoffStarted)-count(backoffStopped))
attr title "backoff active"
vector 169 AeroCommNetwork.africa.AtcFir[1].AtcArea[1].airport[1].controller[0].udp passedUpPk:vector(count) ETV
attr interpolationmode none
attr recordingmode vector(count)
attr source packetSentToUpper
attr title "packets passed up, count"
vector 170 AeroCommNetwork.africa.AtcFir[1].AtcArea[1].airport[1].controller[0].udp droppedPkWrongPort:vector(count) ETV
attr interpolationmode none
attr recordingmode vector(count)
attr source packetDropReasonIsNoPortFound(packetDropped)
attr title "packets dropped (wrong port), count"
vector 171 AeroCommNetwork.africa.AtcFir[1].AtcArea[1].airport[1].controller[0].udp droppedPkBadChecksum:vector(count) ETV
attr interpolationmode none
attr recordingmode vector(count)
attr source packetDropReasonIsIncorrectlyReceived(packetDropped)
attr title "packets dropped (checksum error), count"
vector 172 AeroCommNetwork.africa.AtcFir[1].AtcArea[1].airport[1].controller[1].udp passedUpPk:vector(count) ETV
attr interpolationmode none
attr recordingmode vector(count)
attr source packetSentToUpper
attr title "packets passed up, count"
vector 173 AeroCommNetwork.africa.AtcFir[1].AtcArea[1].airport[1].controller[1].udp droppedPkWrongPort:vector(count) ETV
attr interpolationmode none
attr recordingmode vector(count)
attr source packetDropReasonIsNoPortFound(packetDropped)
attr title "packets dropped (wrong port), count"
vector 174 AeroCommNetwork.africa.AtcFir[1].AtcArea[1].airport[1].controller[1].udp droppedPkBadChecksum:vector(count) ETV
attr interpolationmode none
attr recordingmode vector(count)
attr source packetDropReasonIsIncorrectlyReceived(packetDropped)
attr title "packets dropped (checksum error), count"
vector 175 AeroCommNetwork.africa.AtcFir[1].AtcArea[1].airport[1].aircraft[0].wlan[0].mac.dcf frameSequenceActive:vector ETV
attr autoWarmupFilter false
attr interpolationmode sample-hold
attr recordingmode vector
attr source warmup(count(frameSequenceStarted)-count(frameSequenceFinished))
attr title "frame sequence active"
vector 176 AeroCommNetwork.africa.AtcFir[1].AtcArea[1].airport[1].aircraft[0].wlan[0].mac.dcf.channelAccess.inProgressFrames queueLength:vector ETV
attr autoWarmupFilter false
attr interpolationmode sample-hold
attr recordingmode vector
attr source "warmup(count(packetEnqueued) - count(packetDequeued))"
attr title "queue length"
vector 177 AeroCommNetwork.africa.AtcFir[1].AtcArea[1].airport[1].aircraft[0].wlan[0].mac.dcf.channelAccess.contention backoffActive:vector ETV
attr autoWarmupFilter false
attr interpolationmode sample-hold
attr recordingmode vector
attr source warmup(count(backoffStarted)-count(backoffStopped))
attr title "backoff active"
vector 178 AeroCommNetwork.africa.AtcFir[1].AtcArea[1].airport[1].aircraft[0].udp passedUpPk:vector(count) ETV
attr interpolationmode none
attr recordingmode vector(count)
attr source packetSentToUpper
attr title "packets passed up, count"
vector 179 AeroCommNetwork.africa.AtcFir[1].AtcArea[1].airport[1].aircraft[0].udp droppedPkWrongPort:vector(count) ETV
attr interpolationmode none
attr recordingmode vector(count)
attr source packetDropReasonIsNoPortFound(packetDropped)
attr title "packets dropped (wrong port), count"
vector 180 AeroCommNetwork.africa.AtcFir[1].AtcArea[1].airport[1].aircraft[0].udp droppedPkBadChecksum:vector(count) ETV
attr interpolationmode none
attr recordingmode vector(count)
attr source packetDropReasonIsIncorrectlyReceived(packetDropped)
attr title "packets dropped (checksum error), count"
vector 181 AeroCommNetwork.africa.AtcFir[1].AtcArea[1].airport[1].airportRouter.ppp[0].ppp transmissionState:vector ETV
attr interpolationmode sample-hold
attr recordingmode vector
attr source transmissionStateChanged
attr title "tx state"
vector 182 AeroCommNetwork.africa.AtcFir[1].AtcArea[1].airport[1].atmAccessPoint.wlan[0].mac.dcf frameSequenceActive:vector ETV
attr autoWarmupFilter false
attr interpolationmode sample-hold
attr recordingmode vector
attr source warmup(count(frameSequenceStarted)-count(frameSequenceFinished))
attr title "frame sequence active"
vector 183 AeroCommNetwork.africa.AtcFir[1].AtcArea[1].airport[1].atmAccessPoint.wlan[0].mac.dcf.channelAccess.inProgressFrames queueLength:vector ETV
attr autoWarmupFilter false
attr interpolationmode sample-hold
attr recordingmode vector
attr source "warmup(count(packetEnqueued) - count(packetDequeued))"
attr title "queue length"
vector 184 AeroCommNetwork.africa.AtcFir[1].AtcArea[1].airport[1].atmAccessPoint.wlan[0].mac.dcf.channelAccess.contention backoffActive:vector ETV
attr autoWarmupFilter false
attr interpolationmode sample-hold
attr recordingmode vector
attr source warmup(count(backoffStarted)-count(backoffStopped))
attr title "backoff active"
vector 185 AeroCommNetwork.africa.AtcFir[1].AtcArea[1].sector[0].ppp[0].ppp transmissionState:vector ETV
attr interpolationmode sample-hold
attr recordingmode vector
attr source transmissionStateChanged
attr title "tx state"
vector 186 AeroCommNetwork.africa.AtcFir[1].AtcArea[1].sector[0].udp passedUpPk:vector(count) ETV
attr interpolationmode none
attr recordingmode vector(count)
attr source packetSentToUpper
attr title "packets passed up, count"
vector 187 AeroCommNetwork.africa.AtcFir[1].AtcArea[1].sector[0].udp droppedPkWrongPort:vector(count) ETV
attr interpolationmode none
attr recordingmode vector(count)
attr source packetDropReasonIsNoPortFound(packetDropped)
attr title "packets dropped (wrong port), count"
vector 188 AeroCommNetwork.africa.AtcFir[1].AtcArea[1].sector[0].udp droppedPkBadChecksum:vector(count) ETV
attr interpolationmode none
attr recordingmode vector(count)
attr source packetDropReasonIsIncorrectlyReceived(packetDropped)
attr title "packets dropped (checksum error), count"
vector 189 AeroCommNetwork.africa.AtcFir[1].AtcArea[1].sector[1].ppp[0].ppp transmissionState:vector ETV
attr interpolationmode sample-hold
attr recordingmode vector
attr source transmissionStateChanged
attr title "tx state"
vector 190 AeroCommNetwork.africa.AtcFir[1].AtcArea[1].sector[1].udp passedUpPk:vector(count) ETV
attr interpolationmode none
attr recordingmode vector(count)
attr source packetSentToUpper
attr title "packets passed up, count"
vector 191 AeroCommNetwork.africa.AtcFir[1].AtcArea[1].sector[1].udp droppedPkWrongPort:vector(count) ETV
attr interpolationmode none
attr recordingmode vector(count)
attr source packetDropReasonIsNoPortFound(packetDropped)
attr title "packets dropped (wrong port), count"
vector 192 AeroCommNetwork.africa.AtcFir[1].AtcArea[1].sector[1].udp droppedPkBadChecksum:vector(count) ETV
attr interpolationmode none
attr recordingmode vector(count)
attr source packetDropReasonIsIncorrectlyReceived(packetDropped)
attr title "packets dropped (checksum error), count"
vector 193 AeroCommNetwork.africa.AtcFir[1].AtcArea[1].atcAgent.udp passedUpPk:vector(count) ETV
attr interpolationmode none
attr recordingmode vector(count)
attr source packetSentToUpper
attr title "packets passed up, count"
vector 194 AeroCommNetwork.africa.AtcFir[1].AtcArea[1].atcAgent.udp droppedPkWrongPort:vector(count) ETV
attr interpolationmode none
attr recordingmode vector(count)
attr source packetDropReasonIsNoPortFound(packetDropped)
attr title "packets dropped (wrong port), count"
vector 195 AeroCommNetwork.africa.AtcFir[1].AtcArea[1].atcAgent.udp droppedPkBadChecksum:vector(count) ETV
attr interpolationmode none
attr recordingmode vector(count)
attr source packetDropReasonIsIncorrectlyReceived(packetDropped)
attr title "packets dropped (checksum error), count"
vector 196 AeroCommNetwork.africa.AtcFir[1].AtcArea[1].areaRouter.ppp[0].ppp transmissionState:vector ETV
attr interpolationmode sample-hold
attr recordingmode vector
attr source transmissionStateChanged
attr title "tx state"
vector 197 AeroCommNetwork.africa.AtcFir[1].AtcArea[1].areaRouter.ppp[1].ppp transmissionState:vector ETV
attr interpolationmode sample-hold
attr recordingmode vector
attr source transmissionStateChanged
attr title "tx state"
vector 198 AeroCommNetwork.africa.AtcFir[1].AtcArea[1].areaRouter.ppp[2].ppp transmissionState:vector ETV
attr interpolationmode sample-hold
attr recordingmode vector
attr source transmissionStateChanged
attr title "tx state"
vector 199 AeroCommNetwork.asia.backboneRouter.ppp[0].ppp transmissionState:vector ETV
attr interpolationmode sample-hold
attr recordingmode vector
attr source transmissionStateChanged
attr title "tx state"
vector 200 AeroCommNetwork.asia.backboneRouter.ppp[1].ppp transmissionState:vector ETV
attr interpolationmode sample-hold
attr recordingmode vector
attr source transmissionStateChanged
attr title "tx state"
vector 201 AeroCommNetwork.asia.backboneRouter.ppp[2].ppp transmissionState:vector ETV
attr interpolationmode sample-hold
attr recordingmode vector
attr source transmissionStateChanged
attr title "tx state"
vector 202 AeroCommNetwork.asia.AtcFir[0].FirRouter.ppp[0].ppp transmissionState:vector ETV
attr interpolationmode sample-hold
attr recordingmode vector
attr source transmissionStateChanged
attr title "tx state"
vector 203 AeroCommNetwork.asia.AtcFir[0].FirRouter.ppp[1].ppp transmissionState:vector ETV
attr interpolationmode sample-hold
attr recordingmode vector
attr source transmissionStateChanged
attr title "tx state"
vector 204 AeroCommNetwork.asia.AtcFir[0].FirRouter.ppp[2].ppp transmissionState:vector ETV
attr interpolationmode sample-hold
attr recordingmode vector
attr source transmissionStateChanged
attr title "tx state"
vector 205 AeroCommNetwork.asia.AtcFir[0].AtcArea[0].airport[0].controller[0].udp passedUpPk:vector(count) ETV
attr interpolationmode none
attr recordingmode vector(count)
attr source packetSentToUpper
attr title "packets passed up, count"
vector 206 AeroCommNetwork.asia.AtcFir[0].AtcArea[0].airport[0].controller[0].udp droppedPkWrongPort:vector(count) ETV
attr interpolationmode none
attr recordingmode vector(count)
attr source packetDropReasonIsNoPortFound(packetDropped)
attr title "packets dropped (wrong port), count"
vector 207 AeroCommNetwork.asia.AtcFir[0].AtcArea[0].airport[0].controller[0].udp droppedPkBadChecksum:vector(count) ETV
attr interpolationmode none
attr recordingmode vector(count)
attr source packetDropReasonIsIncorrectlyReceived(packetDropped)
attr title "packets dropped (checksum error), count"
vector 208 AeroCommNetwork.asia.AtcFir[0].AtcArea[0].airport[0].controller[1].udp passedUpPk:vector(count) ETV
attr interpolationmode none
attr recordingmode vector(count)
attr source packetSentToUpper
attr title "packets passed up, count"
vector 209 AeroCommNetwork.asia.AtcFir[0].AtcArea[0].airport[0].controller[1].udp droppedPkWrongPort:vector(count) ETV
attr interpolationmode none
attr recordingmode vector(count)
attr source packetDropReasonIsNoPortFound(packetDropped)
attr title "packets dropped (wrong port), count"
vector 210 AeroCommNetwork.asia.AtcFir[0].AtcArea[0].airport[0].controller[1].udp droppedPkBadChecksum:vector(count) ETV
attr interpolationmode none
attr recordingmode vector(count)
attr source packetDropReasonIsIncorrectlyReceived(packetDropped)
attr title "packets dropped (checksum error), count"
vector 211 AeroCommNetwork.asia.AtcFir[0].AtcArea[0].airport[0].aircraft[0].wlan[0].mac.dcf frameSequenceActive:vector ETV
attr autoWarmupFilter false
attr interpolationmode sample-hold
attr recordingmode vector
attr source warmup(count(frameSequenceStarted)-count(frameSequenceFinished))
attr title "frame sequence active"
vector 212 AeroCommNetwork.asia.AtcFir[0].AtcArea[0].airport[0].aircraft[0].wlan[0].mac.dcf.channelAccess.inProgressFrames queueLength:vector ETV
attr autoWarmupFilter false
attr interpolationmode sample-hold
attr recordingmode vector
attr source "warmup(count(packetEnqueued) - count(packetDequeued))"
attr title "queue length"
vector 213 AeroCommNetwork.asia.AtcFir[0].AtcArea[0].airport[0].aircraft[0].wlan[0].mac.dcf.channelAccess.contention backoffActive:vector ETV
attr autoWarmupFilter false
attr interpolationmode sample-hold
attr recordingmode vector
attr source warmup(count(backoffStarted)-count(backoffStopped))
attr title "backoff active"
vector 214 AeroCommNetwork.asia.AtcFir[0].AtcArea[0].airport[0].aircraft[0].udp passedUpPk:vector(count) ETV
attr interpolationmode none
attr recordingmode vector(count)
attr source packetSentToUpper
attr title "packets passed up, count"
vector 215 AeroCommNetwork.asia.AtcFir[0].AtcArea[0].airport[0].aircraft[0].udp droppedPkWrongPort:vector(count) ETV
attr interpolationmode none
attr recordingmode vector(count)
attr source packetDropReasonIsNoPortFound(packetDropped)
attr title "packets dropped (wrong port), count"
vector 216 AeroCommNetwork.asia.AtcFir[0].AtcArea[0].airport[0].aircraft[0].udp droppedPkBadChecksum:vector(count) ETV
attr interpolationmode none
attr recordingmode vector(count)
attr source packetDropReasonIsIncorrectlyReceived(packetDropped)
attr title "packets dropped (checksum error), count"
vector 217 AeroCommNetwork.asia.AtcFir[0].AtcArea[0].airport[0].airportRouter.ppp[0].ppp transmissionState:vector ETV
attr interpolationmode sample-hold
attr recordingmode vector
attr source transmissionStateChanged
attr title "tx state"
vector 218 AeroCommNetwork.asia.AtcFir[0].AtcArea[0].airport[0].atmAccessPoint.wlan[0].mac.dcf frameSequenceActive:vector ETV
attr autoWarmupFilter false
attr interpolationmode sample-hold
attr recordingmode vector
attr source warmup(count(frameSequenceStarted)-count(frameSequenceFinished))
attr title "frame sequence active"
vector 219 AeroCommNetwork.asia.AtcFir[0].AtcArea[0].airport[0].atmAccessPoint.wlan[0].mac.dcf.channelAccess.inProgressFrames queueLength:vector ETV
attr autoWarmupFilter false
attr interpolationmode sample-hold
attr recordingmode vector
attr source "warmup(count(packetEnqueued) - count(packetDequeued))"
attr title "queue length"
vector 220 AeroCommNetwork.asia.AtcFir[0].AtcArea[0].airport[0].atmAccessPoint.wlan[0].mac.dcf.channelAccess.contention backoffActive:vector ETV
attr autoWarmupFilter false
attr interpolationmode sample-hold
attr recordingmode vector
attr source warmup(count(backoffStarted)-count(backoffStopped))
attr title "backoff active"
vector 221 AeroCommNetwork.asia.AtcFir[0].AtcArea[0].airport[1].controller[0].udp passedUpPk:vector(count) ETV
attr interpolationmode none
attr recordingmode vector(count)
attr source packetSentToUpper
attr title "packets passed up, count"
vector 222 AeroCommNetwork.asia.AtcFir[0].AtcArea[0].airport[1].controller[0].udp droppedPkWrongPort:vector(count) ETV
attr interpolationmode none
attr recordingmode vector(count)
attr source packetDropReasonIsNoPortFound(packetDropped)
attr title "packets dropped (wrong port), count"
vector 223 AeroCommNetwork.asia.AtcFir[0].AtcArea[0].airport[1].controller[0].udp droppedPkBadChecksum:vector(count) ETV
attr interpolationmode none
attr recordingmode vector(count)
attr source packetDropReasonIsIncorrectlyReceived(packetDropped)
attr title "packets dropped (checksum error), count"
vector 224 AeroCommNetwork.asia.AtcFir[0].AtcArea[0].airport[1].controller[1].udp passedUpPk:vector(count) ETV
attr interpolationmode none
attr recordingmode vector(count)
attr source packetSentToUpper
attr title "packets passed up, count"
vector 225 AeroCommNetwork.asia.AtcFir[0].AtcArea[0].airport[1].controller[1].udp droppedPkWrongPort:vector(count) ETV
attr interpolationmode none
attr recordingmode vector(count)
attr source packetDropReasonIsNoPortFound(packetDropped)
attr title "packets dropped (wrong port), count"
vector 226 AeroCommNetwork.asia.AtcFir[0].AtcArea[0].airport[1].controller[1].udp droppedPkBadChecksum:vector(count) ETV
attr interpolationmode none
attr recordingmode vector(count)
attr source packetDropReasonIsIncorrectlyReceived(packetDropped)
attr title "packets dropped (checksum error), count"
vector 227 AeroCommNetwork.asia.AtcFir[0].AtcArea[0].airport[1].aircraft[0].wlan[0].mac.dcf frameSequenceActive:vector ETV
attr autoWarmupFilter false
attr interpolationmode sample-hold
attr recordingmode vector
attr source warmup(count(frameSequenceStarted)-count(frameSequenceFinished))
attr title "frame sequence active"
vector 228 AeroCommNetwork.asia.AtcFir[0].AtcArea[0].airport[1].aircraft[0].wlan[0].mac.dcf.channelAccess.inProgressFrames queueLength:vector ETV
attr autoWarmupFilter false
attr interpolationmode sample-hold
attr recordingmode vector
attr source "warmup(count(packetEnqueued) - count(packetDequeued))"
attr title "queue length"
vector 229 AeroCommNetwork.asia.AtcFir[0].AtcArea[0].airport[1].aircraft[0].wlan[0].mac.dcf.channelAccess.contention backoffActive:vector ETV
attr autoWarmupFilter false
attr interpolationmode sample-hold
attr recordingmode vector
attr source warmup(count(backoffStarted)-count(backoffStopped))
attr title "backoff active"
vector 230 AeroCommNetwork.asia.AtcFir[0].AtcArea[0].airport[1].aircraft[0].udp passedUpPk:vector(count) ETV
attr interpolationmode none
attr recordingmode vector(count)
attr source packetSentToUpper
attr title "packets passed up, count"
vector 231 AeroCommNetwork.asia.AtcFir[0].AtcArea[0].airport[1].aircraft[0].udp droppedPkWrongPort:vector(count) ETV
attr interpolationmode none
attr recordingmode vector(count)
attr source packetDropReasonIsNoPortFound(packetDropped)
attr title "packets dropped (wrong port), count"
vector 232 AeroCommNetwork.asia.AtcFir[0].AtcArea[0].airport[1].aircraft[0].udp droppedPkBadChecksum:vector(count) ETV
attr interpolationmode none
attr recordingmode vector(count)
attr source packetDropReasonIsIncorrectlyReceived(packetDropped)
attr title "packets dropped (checksum error), count"
vector 233 AeroCommNetwork.asia.AtcFir[0].AtcArea[0].airport[1].airportRouter.ppp[0].ppp transmissionState:vector ETV
attr interpolationmode sample-hold
attr recordingmode vector
attr source transmissionStateChanged
attr title "tx state"
vector 234 AeroCommNetwork.asia.AtcFir[0].AtcArea[0].airport[1].atmAccessPoint.wlan[0].mac.dcf frameSequenceActive:vector ETV
attr autoWarmupFilter false
attr interpolationmode sample-hold
attr recordingmode vector
attr source warmup(count(frameSequenceStarted)-count(frameSequenceFinished))
attr title "frame sequence active"
vector 235 AeroCommNetwork.asia.AtcFir[0].AtcArea[0].airport[1].atmAccessPoint.wlan[0].mac.dcf.channelAccess.inProgressFrames queueLength:vector ETV
attr autoWarmupFilter false
attr interpolationmode sample-hold
attr recordingmode vector
attr source "warmup(count(packetEnqueued) - count(packetDequeued))"
attr title "queue length"
vector 236 AeroCommNetwork.asia.AtcFir[0].AtcArea[0].airport[1].atmAccessPoint.wlan[0].mac.dcf.channelAccess.contention backoffActive:vector ETV
attr autoWarmupFilter false
attr interpolationmode sample-hold
attr recordingmode vector
attr source warmup(count(backoffStarted)-count(backoffStopped))
attr title "backoff active"
vector 237 AeroCommNetwork.asia.AtcFir[0].AtcArea[0].sector[0].ppp[0].ppp transmissionState:vector ETV
attr interpolationmode sample-hold
attr recordingmode vector
attr source transmissionStateChanged
attr title "tx state"
vector 238 AeroCommNetwork.asia.AtcFir[0].AtcArea[0].sector[0].udp passedUpPk:vector(count) ETV
attr interpolationmode none
attr recordingmode vector(count)
attr source packetSentToUpper
attr title "packets passed up, count"
vector 239 AeroCommNetwork.asia.AtcFir[0].AtcArea[0].sector[0].udp droppedPkWrongPort:vector(count) ETV
attr interpolationmode none
attr recordingmode vector(count)
attr source packetDropReasonIsNoPortFound(packetDropped)
attr title "packets dropped (wrong port), count"
vector 240 AeroCommNetwork.asia.AtcFir[0].AtcArea[0].sector[0].udp droppedPkBadChecksum:vector(count) ETV
attr interpolationmode none
attr recordingmode vector(count)
attr source packetDropReasonIsIncorrectlyReceived(packetDropped)
attr title "packets dropped (checksum error), count"
vector 241 AeroCommNetwork.asia.AtcFir[0].AtcArea[0].sector[1].ppp[0].ppp transmissionState:vector ETV
attr interpolationmode sample-hold
attr recordingmode vector
attr source transmissionStateChanged
attr title "tx state"
vector 242 AeroCommNetwork.asia.AtcFir[0].AtcArea[0].sector[1].udp passedUpPk:vector(count) ETV
attr interpolationmode none
attr recordingmode vector(count)
attr source packetSentToUpper
attr title "packets passed up, count"
vector 243 AeroCommNetwork.asia.AtcFir[0].AtcArea[0].sector[1].udp droppedPkWrongPort:vector(count) ETV
attr interpolationmode none
attr recordingmode vector(count)
attr source packetDropReasonIsNoPortFound(packetDropped)
attr title "packets dropped (wrong port), count"
vector 244 AeroCommNetwork.asia.AtcFir[0].AtcArea[0].sector[1].udp droppedPkBadChecksum:vector(count) ETV
attr interpolationmode none
attr recordingmode vector(count)
attr source packetDropReasonIsIncorrectlyReceived(packetDropped)
attr title "packets dropped (checksum error), count"
vector 245 AeroCommNetwork.asia.AtcFir[0].AtcArea[0].atcAgent.udp passedUpPk:vector(count) ETV
attr interpolationmode none
attr recordingmode vector(count)
attr source packetSentToUpper
attr title "packets passed up, count"
vector 246 AeroCommNetwork.asia.AtcFir[0].AtcArea[0].atcAgent.udp droppedPkWrongPort:vector(count) ETV
attr interpolationmode none
attr recordingmode vector(count)
attr source packetDropReasonIsNoPortFound(packetDropped)
attr title "packets dropped (wrong port), count"
vector 247 AeroCommNetwork.asia.AtcFir[0].AtcArea[0].atcAgent.udp droppedPkBadChecksum:vector(count) ETV
attr interpolationmode none
attr recordingmode vector(count)
attr source packetDropReasonIsIncorrectlyReceived(packetDropped)
attr title "packets dropped (checksum error), count"
vector 248 AeroCommNetwork.asia.AtcFir[0].AtcArea[0].areaRouter.ppp[0].ppp transmissionState:vector ETV
attr interpolationmode sample-hold
attr recordingmode vector
attr source transmissionStateChanged
attr title "tx state"
vector 249 AeroCommNetwork.asia.AtcFir[0].AtcArea[0].areaRouter.ppp[1].ppp transmissionState:vector ETV
attr interpolationmode sample-hold
attr recordingmode vector
attr source transmissionStateChanged
attr title "tx state"
vector 250 AeroCommNetwork.asia.AtcFir[0].AtcArea[0].areaRouter.ppp[2].ppp transmissionState:vector ETV
attr interpolationmode sample-hold
attr recordingmode vector
attr source transmissionStateChanged
attr title "tx state"
vector 251 AeroCommNetwork.asia.AtcFir[0].AtcArea[1].airport[0].controller[0].udp passedUpPk:vector(count) ETV
attr interpolationmode none
attr recordingmode vector(count)
attr source packetSentToUpper
attr title "packets passed up, count"
vector 252 AeroCommNetwork.asia.AtcFir[0].AtcArea[1].airport[0].controller[0].udp droppedPkWrongPort:vector(count) ETV
attr interpolationmode none
attr recordingmode vector(count)
attr source packetDropReasonIsNoPortFound(packetDropped)
attr title "packets dropped (wrong port), count"
vector 253 AeroCommNetwork.asia.AtcFir[0].AtcArea[1].airport[0].controller[0].udp droppedPkBadChecksum:vector(count) ETV
attr interpolationmode none
attr recordingmode vector(count)
attr source packetDropReasonIsIncorrectlyReceived(packetDropped)
attr title "packets dropped (checksum error), count"
vector 254 AeroCommNetwork.asia.AtcFir[0].AtcArea[1].airport[0].controller[1].udp passedUpPk:vector(count) ETV
attr interpolationmode none
attr recordingmode vector(count)
attr source packetSentToUpper
attr title "packets passed up, count"
vector 255 AeroCommNetwork.asia.AtcFir[0].AtcArea[1].airport[0].controller[1].udp droppedPkWrongPort:vector(count) ETV
attr interpolationmode none
attr recordingmode vector(count)
attr source packetDropReasonIsNoPortFound(packetDropped)
attr title "packets dropped (wrong port), count"
vector 256 AeroCommNetwork.asia.AtcFir[0].AtcArea[1].airport[0].controller[1].udp droppedPkBadChecksum:vector(count) ETV
attr interpolationmode none
attr recordingmode vector(count)
attr source packetDropReasonIsIncorrectlyReceived(packetDropped)
attr title "packets dropped (checksum error), count"
vector 257 AeroCommNetwork.asia.AtcFir[0].AtcArea[1].airport[0].aircraft[0].wlan[0].mac.dcf frameSequenceActive:vector ETV
attr autoWarmupFilter false
attr interpolationmode sample-hold
attr recordingmode vector
attr source warmup(count(frameSequenceStarted)-count(frameSequenceFinished))
attr title "frame sequence active"
vector 258 AeroCommNetwork.asia.AtcFir[0].AtcArea[1].airport[0].aircraft[0].wlan[0].mac.dcf.channelAccess.inProgressFrames queueLength:vector ETV
attr autoWarmupFilter false
attr interpolationmode sample-hold
attr recordingmode vector
attr source "warmup(count(packetEnqueued) - count(packetDequeued))"
attr title "queue length"
vector 259 AeroCommNetwork.asia.AtcFir[0].AtcArea[1].airport[0].aircraft[0].wlan[0].mac.dcf.channelAccess.contention backoffActive:vector ETV
attr autoWarmupFilter false
attr interpolationmode sample-hold
attr recordingmode vector
attr source warmup(count(backoffStarted)-count(backoffStopped))
attr title "backoff active"
vector 260 AeroCommNetwork.asia.AtcFir[0].AtcArea[1].airport[0].aircraft[0].udp passedUpPk:vector(count) ETV
attr interpolationmode none
attr recordingmode vector(count)
attr source packetSentToUpper
attr title "packets passed up, count"
vector 261 AeroCommNetwork.asia.AtcFir[0].AtcArea[1].airport[0].aircraft[0].udp droppedPkWrongPort:vector(count) ETV
attr interpolationmode none
attr recordingmode vector(count)
attr source packetDropReasonIsNoPortFound(packetDropped)
attr title "packets dropped (wrong port), count"
vector 262 AeroCommNetwork.asia.AtcFir[0].AtcArea[1].airport[0].aircraft[0].udp droppedPkBadChecksum:vector(count) ETV
attr interpolationmode none
attr recordingmode vector(count)
attr source packetDropReasonIsIncorrectlyReceived(packetDropped)
attr title "packets dropped (checksum error), count"
vector 263 AeroCommNetwork.asia.AtcFir[0].AtcArea[1].airport[0].airportRouter.ppp[0].ppp transmissionState:vector ETV
attr interpolationmode sample-hold
attr recordingmode vector
attr source transmissionStateChanged
attr title "tx state"
vector 264 AeroCommNetwork.asia.AtcFir[0].AtcArea[1].airport[0].atmAccessPoint.wlan[0].mac.dcf frameSequenceActive:vector ETV
attr autoWarmupFilter false
attr interpolationmode sample-hold
attr recordingmode vector
attr source warmup(count(frameSequenceStarted)-count(frameSequenceFinished))
attr title "frame sequence active"
vector 265 AeroCommNetwork.asia.AtcFir[0].AtcArea[1].airport[0].atmAccessPoint.wlan[0].mac.dcf.channelAccess.inProgressFrames queueLength:vector ETV
attr autoWarmupFilter false
attr interpolationmode sample-hold
attr recordingmode vector
attr source "warmup(count(packetEnqueued) - count(packetDequeued))"
attr title "queue length"
[...]
1041	465468 11 0 0 0 0 1 0 0 0 0
1042	465479 11 0 0 0 0 1 0 0 0 0
1043	465490 11 0 0 0 0 1 0 0 0 0
1044	465501 11 0 0 0 0 1 0 0 0 0
1045	465512 22 0 0 0 0 2 0 0 0 0
1046	465534 22 0 0 0 0 2 0 0 0 0
1047	465556 22 0 0 0 0 2 0 0 0 0
1048	465578 11 0 0 0 0 1 0 0 0 0
1049	465589 11 0 0 0 0 1 0 0 0 0
1050	465600 11 0 0 0 0 1 0 0 0 0
1051	465611 11 0 0 0 0 1 0 0 0 0
1052	465622 22 0 0 0 0 2 0 0 0 0
1053	465644 22 0 0 0 0 2 0 0 0 0
1054	465666 22 0 0 0 0 2 0 0 0 0
1055	465688 11 0 0 0 0 1 0 0 0 0
1056	465699 11 0 0 0 0 1 0 0 0 0
1057	465710 11 0 0 0 0 1 0 0 0 0
1058	465721 11 0 0 0 0 1 0 0 0 0
1059	465732 11 0 0 0 0 1 0 0 0 0
1060	465743 11 0 0 0 0 1 0 0 0 0
1061	465754 11 0 0 0 0 1 0 0 0 0
1062	465765 11 0 0 0 0 1 0 0 0 0
1063	465776 11 0 0 0 0 1 0 0 0 0
1064	465787 11 0 0 0 0 1 0 0 0 0
1065	465798 11 0 0 0 0 1 0 0 0 0
1066	465809 11 0 0 0 0 1 0 0 0 0
1067	465820 11 0 0 0 0 1 0 0 0 0
1068	465831 11 0 0 0 0 1 0 0 0 0
1069	465842 11 0 0 0 0 1 0 0 0 0
1070	465853 11 0 0 0 0 1 0 0 0 0
1071	465864 11 0 0 0 0 1 0 0 0 0
1072	465875 11 0 0 0 0 1 0 0 0 0
1073	465886 11 0 0 0 0 1 0 0 0 0
1074	465897 11 0 0 0 0 1 0 0 0 0
1075	465908 11 0 0 0 0 1 0 0 0 0
1076	465919 11 0 0 0 0 1 0 0 0 0
1077	465930 11 0 0 0 0 1 0 0 0 0
1078	465941 22 0 0 0 0 2 0 0 0 0
1079	465963 22 0 0 0 0 2 0 0 0 0
1080	465985 22 0 0 0 0 2 0 0 0 0
1081	466007 11 0 0 0 0 1 0 0 0 0
1082	466018 11 0 0 0 0 1 0 0 0 0
1083	466029 11 0 0 0 0 1 0 0 0 0
1084	466040 11 0 0 0 0 1 0 0 0 0
1085	466051 22 0 0 0 0 2 0 0 0 0
1086	466073 22 0 0 0 0 2 0 0 0 0
1087	466095 22 0 0 0 0 2 0 0 0 0
1088	466117 11 0 0 0 0 1 0 0 0 0
1089	466128 11 0 0 0 0 1 0 0 0 0
1090	466139 11 0 0 0 0 1 0 0 0 0
1091	466150 11 0 0 0 0 1 0 0 0 0
1092	466161 11 0 0 0 0 1 0 0 0 0
1093	466172 11 0 0 0 0 1 0 0 0 0
1094	466183 22 0 0 0 0 2 0 0 0 0
1095	466205 22 0 0 0 0 2 0 0 0 0
1096	466227 22 0 0 0 0 2 0 0 0 0
1097	466249 11 0 0 0 0 1 0 0 0 0
1098	466260 11 0 0 0 0 1 0 0 0 0
1099	466271 11 0 0 0 0 1 0 0 0 0
1100	466282 11 0 0 0 0 1 0 0 0 0
1101	466293 22 0 0 0 0 2 0 0 0 0
1102	466315 22 0 0 0 0 2 0 0 0 0
1103	466337 22 0 0 0 0 2 0 0 0 0
1104	466359 11 0 0 0 0 1 0 0 0 0
1105	466370 11 0 0 0 0 1 0 0 0 0
1106	466381 11 0 0 0 0 1 0 0 0 0
1107	466392 11 0 0 0 0 1 0 0 0 0
1108	466403 11 0 0 0 0 1 0 0 0 0
1109	466414 11 0 0 0 0 1 0 0 0 0
1110	466425 11 0 0 0 0 1 0 0 0 0
1111	466436 11 0 0 0 0 1 0 0 0 0
1112	466447 11 0 0 0 0 1 0 0 0 0
1113	466458 11 0 0 0 0 1 0 0 0 0
1114	466469 11 0 0 0 0 1 0 0 0 0
1115	466480 11 0 0 0 0 1 0 0 0 0
1116	466491 11 0 0 0 0 1 0 0 0 0
1117	466502 11 0 0 0 0 1 0 0 0 0
1118	466513 11 0 0 0 0 1 0 0 0 0
1119	466524 11 0 0 0 0 1 0 0 0 0
1120	466535 11 0 0 0 0 1 0 0 0 0
1121	466546 11 0 0 0 0 1 0 0 0 0
1122	466557 11 0 0 0 0 1 0 0 0 0
1123	466568 11 0 0 0 0 1 0 0 0 0
1124	466579 22 0 0 0 0 2 0 0 0 0
1125	466601 22 0 0 0 0 2 0 0 0 0
1126	466623 22 0 0 0 0 2 0 0 0 0
1127	466645 11 0 0 0 0 1 0 0 0 0
1128	466656 11 0 0 0 0 1 0 0 0 0
1129	466667 11 0 0 0 0 1 0 0 0 0
1130	466678 11 0 0 0 0 1 0 0 0 0
1131	466689 22 0 0 0 0 2 0 0 0 0
1132	466711 22 0 0 0 0 2 0 0 0 0
1133	466733 22 0 0 0 0 2 0 0 0 0
1134	466755 11 0 0 0 0 1 0 0 0 0
1135	466766 11 0 0 0 0 1 0 0 0 0
1136	466777 11 0 0 0 0 1 0 0 0 0
1137	466788 11 0 0 0 0 1 0 0 0 0
1138	466799 11 0 0 0 0 1 0 0 0 0
1139	466810 11 0 0 0 0 1 0 0 0 0
1140	466821 22 0 0 0 0 2 0 0 0 0
1141	466843 22 0 0 0 0 2 0 0 0 0
1142	466865 22 0 0 0 0 2 0 0 0 0
1143	466887 11 0 0 0 0 1 0 0 0 0
1144	466898 11 0 0 0 0 1 0 0 0 0
1145	466909 11 0 0 0 0 1 0 0 0 0
1146	466920 11 0 0 0 0 1 0 0 0 0
1147	466931 22 0 0 0 0 2 0 0 0 0
1148	466953 22 0 0 0 0 2 0 0 0 0
1149	466975 22 0 0 0 0 2 0 0 0 0
1150	466997 11 0 0 0 0 1 0 0 0 0
1151	467008 11 0 0 0 0 1 0 0 0 0
1152	467019 11 0 0 0 0 1 0 0 0 0
1153	467030 11 0 0 0 0 1 0 0 0 0
1154	467041 11 0 0 0 0 1 0 0 0 0
1155	467052 11 0 0 0 0 1 0 0 0 0
1156	467063 11 0 0 0 0 1 0 0 0 0
1157	467074 11 0 0 0 0 1 0 0 0 0
1158	467085 11 0 0 0 0 1 0 0 0 0
1159	467096 11 0 0 0 0 1 0 0 0 0
1160	467107 11 0 0 0 0 1 0 0 0 0
1161	467118 11 0 0 0 0 1 0 0 0 0
1162	467129 11 0 0 0 0 1 0 0 0 0
1163	467140 11 0 0 0 0 1 0 0 0 0
1164	467151 33 0 0 0 0 3 0 2 2 4
1165	467184 11 0 0 0 0 1 0 0 0 0
1166	467195 33 0 0 0 0 3 0 2 2 4
1167	467228 11 0 0 0 0 1 2 2 2 4
1168	467239 33 0 0 0 0 3 0 2 2 4
1169	467272 11 0 0 0 0 1 0 0 0 0
1170	467283 33 0 0 0 0 3 0 2 2 4
1171	467316 11 0 0 0 0 1 2 2 2 4
1172	467327 33 0 0 0 0 3 0 2 2 4
1173	467360 11 0 0 0 0 1 0 0 0 0
1174	467371 33 0 0 0 0 3 0 2 2 4
1175	467404 11 0 0 0 0 1 2 2 2 4
1176	467415 33 0 0 0 0 3 0 2 2 4
1177	467448 11 0 0 0 0 1 0 0 0 0
1178	467459 33 0 0 0 0 3 0 2 2 4
1179	467492 11 0 0 0 0 1 2 2 2 4
1180	467503 33 0 0 0 0 3 0 2 2 4
1181	467536 11 0 0 0 0 1 0 0 0 0
1182	467547 33 0 0 0 0 3 0 2 2 4
1183	467580 11 0 0 0 0 1 2 2 2 4
1184	467591 33 0 0 0 0 3 0 2 2 4
1185	467624 11 0 0 0 0 1 0 0 0 0
1186	467635 33 0 0 0 0 3 0 2 2 4
1187	467668 11 0 0 0 0 1 2 2 2 4
1188	467679 33 0 0 0 0 3 0 2 2 4
1189	467712 11 0 0 0 0 1 0 0 0 0
1190	467723 33 0 0 0 0 3 0 2 2 4
1191	467756 11 0 0 0 0 1 2 2 2 4
1192	467767 33 0 0 0 0 3 0 2 2 4
1193	467800 11 0 0 0 0 1 0 0 0 0
1194	467811 33 0 0 0 0 3 0 2 2 4
1195	467844 11 0 0 0 0 1 2 2 2 4
1196	467855 33 0 0 0 0 3 0 2 2 4
1197	467888 11 0 0 0 0 1 0 0 0 0
1198	467899 33 0 0 0 0 3 0 2 2 4
1199	467932 11 0 0 0 0 1 2 2 2 4
1200	467943 33 0 0 0 0 3 0 2 2 4
1201	467976 11 0 0 0 0 1 0 0 0 0
1202	467987 33 0 0 0 0 3 0 2 2 4
1203	468020 11 0 0 0 0 1 2 2 2 4
1204	468031 33 0 0 0 0 3 0 2 2 4
1205	468064 11 0 0 0 0 1 0 0 0 0
1206	468075 33 0 0 0 0 3 0 2 2 4
1207	468108 11 0 0 0 0 1 2 2 2 4
1208	468119 33 0 0 0 0 3 0 2 2 4
1209	468152 11 0 0 0 0 1 0 0 0 0
1210	468163 33 0 0 0 0 3 0 2 2 4
1211	468196 11 0 0 0 0 1 2 2 2 4
1212	468207 33 0 0 0 0 3 0 2 2 4
1213	468240 11 0 0 0 0 1 0 0 0 0
1214	468251 33 0 0 0 0 3 0 2 2 4
1215	468284 11 0 0 0 0 1 2 2 2 4
1216	468295 33 0 0 0 0 3 0 2 2 4
1217	468328 11 0 0 0 0 1 0 0 0 0
1218	468339 33 0 0 0 0 3 0 2 2 4
1219	468372 11 0 0 0 0 1 2 2 2 4
1220	468383 33 0 0 0 0 3 0 2 2 4
1221	468416 11 0 0 0 0 1 0 0 0 0
1222	468427 33 0 0 0 0 3 0 2 2 4
1223	468460 11 0 0 0 0 1 2 2 2 4
1224	468471 33 0 0 0 0 3 0 2 2 4
1225	468504 11 0 0 0 0 1 0 0 0 0
1226	468515 33 0 0 0 0 3 0 2 2 4
1227	468548 11 0 0 0 0 1 2 2 2 4
1228	468559 33 0 0 0 0 3 0 2 2 4
1229	468592 11 0 0 0 0 1 0 0 0 0
1230	468603 33 0 0 0 0 3 0 2 2 4
1231	468636 11 0 0 0 0 1 2 2 2 4
1232	468647 33 0 0 0 0 3 0 2 2 4
1233	468680 11 0 0 0 0 1 0 0 0 0
1234	468691 33 0 0 0 0 3 0 2 2 4
1235	468724 11 0 0 0 0 1 2 2 2 4
1236	468735 33 0 0 0 0 3 0 2 2 4
1237	468768 11 0 0 0 0 1 0 0 0 0
1238	468779 33 0 0 0 0 3 0 2 2 4
1239	468812 11 0 0 0 0 1 2 2 2 4
1240	468823 33 0 0 0 0 3 0 2 2 4
1241	468856 11 0 0 0 0 1 0 0 0 0
1242	468867 33 0 0 0 0 3 0 2 2 4
1243	468900 11 0 0 0 0 1 2 2 2 4
1244	468911 33 0 0 0 0 3 0 2 2 4
1245	468944 11 0 0 0 0 1 0 0 0 0
1246	468955 33 0 0 0 0 3 0 2 2 4
1247	468988 11 0 0 0 0 1 2 2 2 4
1248	468999 33 0 0 0 0 3 0 2 2 4
1249	469032 11 0 0 0 0 1 0 0 0 0
1250	469043 33 0 0 0 0 3 0 2 2 4
1251	469076 11 0 0 0 0 1 2 2 2 4
1252	469087 33 0 0 0 0 3 0 2 2 4
1253	469120 11 0 0 0 0 1 0 0 0 0
1254	469131 33 0 0 0 0 3 0 2 2 4
1255	469164 11 0 0 0 0 1 2 2 2 4
1256	469175 33 0 0 0 0 3 0 2 2 4
1257	469208 11 0 0 0 0 1 0 0 0 0
1258	469219 33 0 0 0 0 3 0 2 2 4
1259	469252 11 0 0 0 0 1 2 2 2 4
1260	469263 33 0 0 0 0 3 0 2 2 4
1261	469296 11 0 0 0 0 1 0 0 0 0
1262	469307 33 0 0 0 0 3 0 2 2 4
1263	469340 11 0 0 0 0 1 2 2 2 4
1264	469351 33 0 0 0 0 3 0 2 2 4
1265	469384 11 0 0 0 0 1 0 0 0 0
1266	469395 33 0 0 0 0 3 0 2 2 4
1267	469428 11 0 0 0 0 1 2 2 2 4
1268	469439 33 0 0 0 0 3 0 2 2 4
1269	469472 11 0 0 0 0 1 0 0 0 0
1270	469483 33 0 0 0 0 3 0 2 2 4
1271	469516 11 0 0 0 0 1 2 2 2 4
1272	469527 33 0 0 0 0 3 0 2 2 4
1273	469560 11 0 0 0 0 1 0 0 0 0
1274	469571 33 0 0 0 0 3 0 2 2 4
1275	469604 11 0 0 0 0 1 2 2 2 4
1276	469615 33 0 0 0 0 3 0 2 2 4
1277	469648 11 0 0 0 0 1 0 0 0 0
1278	469659 33 0 0 0 0 3 0 2 2 4
1279	469692 11 0 0 0 0 1 2 2 2 4
1280	469703 33 0 0 0 0 3 0 2 2 4
1281	469736 11 0 0 0 0 1 0 0 0 0
1282	469747 33 0 0 0 0 3 0 2 2 4
1283	469780 11 0 0 0 0 1 2 2 2 4
1284	469791 33 0 0 0 0 3 0 2 2 4
1285	469824 11 0 0 0 0 1 0 0 0 0
1286	469835 33 0 0 0 0 3 0 2 2 4
1287	469868 11 0 0 0 0 1 2 2 2 4
1288	469879 33 0 0 0 0 3 0 2 2 4
1289	469912 11 0 0 0 0 1 0 0 0 0
1290	469923 33 0 0 0 0 3 0 2 2 4
1291	469956 11 0 0 0 0 1 2 2 2 4
1292	469967 33 0 0 0 0 3 0 2 2 4
1293	470000 11 0 0 0 0 1 0 0 0 0
1294	470011 33 0 0 0 0 3 0 2 2 4
1295	470044 11 0 0 0 0 1 2 2 2 4
1296	470055 33 0 0 0 0 3 0 2 2 4
1297	470088 11 0 0 0 0 1 0 0 0 0
1298	470099 33 0 0 0 0 3 0 2 2 4
1299	470132 11 0 0 0 0 1 2 2 2 4
1300	470143 33 0 0 0 0 3 0 2 2 4
1301	470176 11 0 0 0 0 1 0 0 0 0
1302	470187 33 0 0 0 0 3 0 2 2 4
1303	470220 11 0 0 0 0 1 2 2 2 4
1304	470231 33 0 0 0 0 3 0 2 2 4
1305	470264 11 0 0 0 0 1 0 0 0 0
1306	470275 33 0 0 0 0 3 0 2 2 4
1307	470308 11 0 0 0 0 1 2 2 2 4
1308	470319 33 0 0 0 0 3 0 2 2 4
1309	470352 11 0 0 0 0 1 0 0 0 0
1310	470363 33 0 0 0 0 3 0 2 2 4
1311	470396 11 0 0 0 0 1 2 2 2 4
1312	470407 33 0 0 0 0 3 0 2 2 4
1313	470440 11 0 0 0 0 1 0 0 0 0
1314	470451 33 0 0 0 0 3 0 2 2 4
1315	470484 11 0 0 0 0 1 2 2 2 4
1316	470495 33 0 0 0 0 3 0 2 2 4
1317	470528 11 0 0 0 0 1 0 0 0 0
1318	470539 33 0 0 0 0 3 0 2 2 4
1319	470572 11 0 0 0 0 1 2 2 2 4
1320	470583 33 0 0 0 0 3 0 2 2 4
1321	470616 11 0 0 0 0 1 0 0 0 0
1322	470627 33 0 0 0 0 3 0 2 2 4
1323	470660 11 0 0 0 0 1 2 2 2 4
1324	470671 33 0 0 0 0 3 0 2 2 4
1325	470704 11 0 0 0 0 1 0 0 0 0
1326	470715 33 0 0 0 0 3 0 2 2 4
1327	470748 11 0 0 0 0 1 2 2 2 4
1328	470759 33 0 0 0 0 3 0 2 2 4
1329	470792 11 0 0 0 0 1 0 0 0 0
1330	470803 33 0 0 0 0 3 0 2 2 4
1331	470836 11 0 0 0 0 1 2 2 2 4
1332	470847 33 0 0 0 0 3 0 2 2 4
1333	470880 11 0 0 0 0 1 0 0 0 0
1334	470891 33 0 0 0 0 3 0 2 2 4
1335	470924 11 0 0 0 0 1 2 2 2 4
1336	470935 33 0 0 0 0 3 0 2 2 4
1337	470968 11 0 0 0 0 1 0 0 0 0
1338	470979 33 0 0 0 0 3 0 2 2 4
1339	471012 11 0 0 0 0 1 2 2 2 4
1340	471023 33 0 0 0 0 3 0 2 2 4
1341	471056 11 0 0 0 0 1 0 0 0 0
1342	471067 33 0 0 0 0 3 0 2 2 4
1343	471100 11 0 0 0 0 1 2 2 2 4
1344	471111 33 0 0 0 0 3 0 2 2 4
1345	471144 11 0 0 0 0 1 0 0 0 0
1346	471155 33 0 0 0 0 3 0 2 2 4
1347	471188 11 0 0 0 0 1 2 2 2 4
1348	471199 33 0 0 0 0 3 0 2 2 4
1349	471232 11 0 0 0 0 1 0 0 0 0
1350	471243 33 0 0 0 0 3 0 2 2 4
1351	471276 11 0 0 0 0 1 2 2 2 4
1352	471287 33 0 0 0 0 3 0 2 2 4
1353	471320 11 0 0 0 0 1 0 0 0 0
1354	471331 33 0 0 0 0 3 0 2 2 4
1355	471364 11 0 0 0 0 1 2 2 2 4
1356	471375 11 0 0 0 0 1 1 1 1 1
1357	471386 22 0 0 0 0 2 0 0 0 0
1358	471408 11 0 0 0 0 1 1 1 1 1
1359	471419 22 0 0 0 0 2 0 0 0 0
1360	471441 11 0 0 0 0 1 1 1 1 1
1361	471452 22 0 0 0 0 2 0 0 0 0
1362	471474 11 0 0 0 0 1 1 1 1 1
1363	471485 22 0 0 0 0 2 0 0 0 0
1364	471507 11 0 0 0 0 1 1 1 1 1
1365	471518 22 0 0 0 0 2 0 0 0 0
1366	471540 11 0 0 0 0 1 1 1 1 1
1367	471551 22 0 0 0 0 2 0 0 0 0
1368	471573 11 0 0 0 0 1 1 1 1 1
1369	471584 22 0 0 0 0 2 0 0 0 0
1370	471606 11 0 0 0 0 1 1 1 1 1
1371	471617 22 0 0 0 0 2 0 0 0 0
1372	471639 11 0 0 0 0 1 1 1 1 1
1373	471650 22 0 0 0 0 2 0 0 0 0
1374	471672 11 0 0 0 0 1 1 1 1 1
1375	471683 22 0 0 0 0 2 0 0 0 0
1376	471705 11 0 0 0 0 1 1 1 1 1
1377	471716 22 0 0 0 0 2 0 0 0 0
1378	471738 11 0 0 0 0 1 1 1 1 1
1379	471749 22 0 0 0 0 2 0 0 0 0
1380	471771 11 0 0 0 0 1 1 1 1 1
1381	471782 22 0 0 0 0 2 0 0 0 0
1382	471804 11 0 0 0 0 1 1 1 1 1
1383	471815 22 0 0 0 0 2 0 0 0 0
1384	471837 11 0 0 0 0 1 1 1 1 1
1385	471848 22 0 0 0 0 2 0 0 0 0
1386	471870 11 0 0 0 0 1 1 1 1 1
1387	471881 22 0 0 0 0 2 0 0 0 0
1388	471903 11 0 0 0 0 1 1 1 1 1
1389	471914 22 0 0 0 0 2 0 0 0 0
1390	471936 11 0 0 0 0 1 1 1 1 1
1391	471947 22 0 0 0 0 2 0 0 0 0
1392	471969 11 0 0 0 0 1 1 1 1 1
1393	471980 22 0 0 0 0 2 0 0 0 0
1394	472002 11 0 0 0 0 1 1 1 1 1
1395	472013 22 0 0 0 0 2 0 0 0 0
1396	472035 11 0 0 0 0 1 1 1 1 1
1397	472046 22 0 0 0 0 2 0 0 0 0
1398	472068 11 0 0 0 0 1 1 1 1 1
1399	472079 22 0 0 0 0 2 0 0 0 0
1400	472101 11 0 0 0 0 1 1 1 1 1
1401	472112 22 0 0 0 0 2 0 0 0 0
1402	472134 11 0 0 0 0 1 1 1 1 1
1403	472145 22 0 0 0 0 2 0 0 0 0
1404	472167 11 0 0 0 0 1 1 1 1 1
1405	472178 22 0 0 0 0 2 0 0 0 0
1406	472200 11 0 0 0 0 1 1 1 1 1
1407	472211 22 0 0 0 0 2 0 0 0 0
1408	472233 11 0 0 0 0 1 1 1 1 1
1409	472244 22 0 0 0 0 2 0 0 0 0
1410	472266 11 0 0 0 0 1 1 1 1 1
1411	472277 22 0 0 0 0 2 0 0 0 0
1412	472299 11 0 0 0 0 1 1 1 1 1
1413	472310 22 0 0 0 0 2 0 0 0 0
1414	472332 11 0 0 0 0 1 1 1 1 1
1415	472343 22 0 0 0 0 2 0 0 0 0
1416	472365 11 0 0 0 0 1 1 1 1 1
1417	472376 22 0 0 0 0 2 0 0 0 0
1418	472398 11 0 0 0 0 1 1 1 1 1
1419	472409 22 0 0 0 0 2 0 0 0 0
1420	472431 11 0 0 0 0 1 1 1 1 1
1421	472442 22 0 0 0 0 2 0 0 0 0
1422	472464 11 0 0 0 0 1 1 1 1 1
1423	472475 22 0 0 0 0 2 0 0 0 0
1424	472497 11 0 0 0 0 1 1 1 1 1
1425	472508 22 0 0 0 0 2 0 0 0 0
1426	472530 11 0 0 0 0 1 1 1 1 1
1427	472541 22 0 0 0 0 2 0 0 0 0
1428	472563 11 0 0 0 0 1 1 1 1 1
1429	472574 22 0 0 0 0 2 0 0 0 0
1430	472596 11 0 0 0 0 1 1 1 1 1
1431	472607 22 0 0 0 0 2 0 0 0 0
1432	472629 11 0 0 0 0 1 1 1 1 1
1433	472640 22 0 0 0 0 2 0 0 0 0
1434	472662 11 0 0 0 0 1 1 1 1 1
1435	472673 22 0 0 0 0 2 0 0 0 0
1436	472695 11 0 0 0 0 1 1 1 1 1
1437	472706 22 0 0 0 0 2 0 0 0 0
1438	472728 11 0 0 0 0 1 1 1 1 1
1439	472739 22 0 0 0 0 2 0 0 0 0
1440	472761 11 0 0 0 0 1 1 1 1 1
1441	472772 22 0 0 0 0 2 0 0 0 0
1442	472794 11 0 0 0 0 1 1 1 1 1
1443	472805 22 0 0 0 0 2 0 0 0 0
1444	472827 11 0 0 0 0 1 1 1 1 1
1445	472838 22 0 0 0 0 2 0 0 0 0
1446	472860 11 0 0 0 0 1 1 1 1 1
1447	472871 22 0 0 0 0 2 0 0 0 0
1448	472893 11 0 0 0 0 1 1 1 1 1
1449	472904 22 0 0 0 0 2 0 0 0 0
1450	472926 11 0 0 0 0 1 1 1 1 1
1451	472937 22 0 0 0 0 2 0 0 0 0
1452	472959 11 0 0 0 0 1 1 1 1 1
1453	472970 22 0 0 0 0 2 0 0 0 0
1454	472992 11 0 0 0 0 1 1 1 1 1
1455	473003 22 0 0 0 0 2 0 0 0 0
1456	473025 11 0 0 0 0 1 1 1 1 1
1457	473036 22 0 0 0 0 2 0 0 0 0
1458	473058 11 0 0 0 0 1 1 1 1 1
1459	473069 22 0 0 0 0 2 0 0 0 0
1460	473091 11 0 0 0 0 1 1 1 1 1
1461	473102 22 0 0 0 0 2 0 0 0 0
1462	473124 11 0 0 0 0 1 1 1 1 1
1463	473135 22 0 0 0 0 2 0 0 0 0
1464	473157 11 0 0 0 0 1 1 1 1 1
1465	473168 22 0 0 0 0 2 0 0 0 0
1466	473190 11 0 0 0 0 1 1 1 1 1
1467	473201 22 0 0 0 0 2 0 0 0 0
1468	473223 11 0 0 0 0 1 1 1 1 1
1469	473234 22 0 0 0 0 2 0 0 0 0
1470	473256 11 0 0 0 0 1 1 1 1 1
1471	473267 22 0 0 0 0 2 0 0 0 0
1472	473289 11 0 0 0 0 1 1 1 1 1
1473	473300 22 0 0 0 0 2 0 0 0 0
1474	473322 11 0 0 0 0 1 1 1 1 1
1475	473333 22 0 0 0 0 2 0 0 0 0
1476	473355 11 0 0 0 0 1 1 1 1 1
1477	473366 22 0 0 0 0 2 0 0 0 0
1478	473388 11 0 0 0 0 1 1 1 1 1
1479	473399 22 0 0 0 0 2 0 0 0 0
1480	473421 11 0 0 0 0 1 1 1 1 1
1481	473432 22 0 0 0 0 2 0 0 0 0
1482	473454 11 0 0 0 0 1 1 1 1 1
1483	473465 22 0 0 0 0 2 0 0 0 0
1484	473487 11 0 0 0 0 1 1 1 1 1
1485	473498 22 0 0 0 0 2 0 0 0 0
1486	473520 11 0 0 0 0 1 1 1 1 1
1487	473531 22 0 0 0 0 2 0 0 0 0
1488	473553 11 0 0 0 0 1 1 1 1 1
1489	473564 22 0 0 0 0 2 0 0 0 0
1490	473586 11 0 0 0 0 1 1 1 1 1
1491	473597 22 0 0 0 0 2 0 0 0 0
1492	473619 11 0 0 0 0 1 1 1 1 1
1493	473630 22 0 0 0 0 2 0 0 0 0
1494	473652 11 0 0 0 0 1 1 1 1 1
1495	473663 22 0 0 0 0 2 0 0 0 0
1496	473685 11 0 0 0 0 1 1 1 1 1
1497	473696 22 0 0 0 0 2 0 0 0 0
1498	473718 11 0 0 0 0 1 1 1 1 1
1499	473729 22 0 0 0 0 2 0 0 0 0
1500	473751 11 0 0 0 0 1 1 1 1 1
1501	473762 22 0 0 0 0 2 0 0 0 0
1502	473784 11 0 0 0 0 1 1 1 1 1
1503	473795 22 0 0 0 0 2 0 0 0 0
1504	473817 11 0 0 0 0 1 1 1 1 1
1505	473828 22 0 0 0 0 2 0 0 0 0
1506	473850 11 0 0 0 0 1 1 1 1 1
1507	473861 22 0 0 0 0 2 0 0 0 0
1508	473883 11 0 0 0 0 1 1 1 1 1
1509	473894 22 0 0 0 0 2 0 0 0 0
1510	473916 11 0 0 0 0 1 1 1 1 1
1511	473927 22 0 0 0 0 2 0 0 0 0
1512	473949 11 0 0 0 0 1 1 1 1 1
1513	473960 22 0 0 0 0 2 0 0 0 0
1514	473982 11 0 0 0 0 1 1 1 1 1
1515	473993 22 0 0 0 0 2 0 0 0 0
1516	474015 11 0 0 0 0 1 1 1 1 1
1517	474026 22 0 0 0 0 2 0 0 0 0
1518	474048 11 0 0 0 0 1 1 1 1 1
1519	474059 22 0 0 0 0 2 0 0 0 0
1520	474081 11 0 0 0 0 1 1 1 1 1
1521	474092 22 0 0 0 0 2 0 0 0 0
1522	474114 11 0 0 0 0 1 1 1 1 1
1523	474125 22 0 0 0 0 2 0 0 0 0
1524	474147 11 0 0 0 0 1 1 1 1 1
1525	474158 22 0 0 0 0 2 0 0 0 0
1526	474180 11 0 0 0 0 1 1 1 1 1
1527	474191 22 0 0 0 0 2 0 0 0 0
1528	474213 11 0 0 0 0 1 1 1 1 1
1529	474224 22 0 0 0 0 2 0 0 0 0
1530	474246 11 0 0 0 0 1 1 1 1 1
1531	474257 22 0 0 0 0 2 0 0 0 0
1532	474279 11 0 0 0 0 1 1 1 1 1
1533	474290 22 0 0 0 0 2 0 0 0 0
1534	474312 11 0 0 0 0 1 1 1 1 1
1535	474323 22 0 0 0 0 2 0 0 0 0
1536	474345 11 0 0 0 0 1 1 1 1 1
1537	474356 22 0 0 0 0 2 0 0 0 0
1538	474378 11 0 0 0 0 1 1 1 1 1
1539	474389 22 0 0 0 0 2 0 0 0 0
1540	474411 11 0 0 0 0 1 1 1 1 1
1541	474422 22 0 0 0 0 2 0 0 0 0
1542	474444 11 0 0 0 0 1 1 1 1 1
1543	474455 22 0 0 0 0 2 0 0 0 0
1544	474477 11 0 0 0 0 1 1 1 1 1
1545	474488 22 0 0 0 0 2 0 0 0 0
1546	474510 11 0 0 0 0 1 1 1 1 1
1547	474521 22 0 0 0 0 2 0 0 0 0
1548	474543 11 0 0 0 0 1 7 7 7 49
1549	474554 11 0 0 0 0 1 7 7 7 49
1550	474565 11 0 0 0 0 1 7 7 7 49
1551	474576 11 0 0 0 0 1 7 7 7 49
1552	474587 11 0 0 0 0 1 7 7 7 49
1553	474598 11 0 0 0 0 1 7 7 7 49
1554	474609 11 0 0 0 0 1 7 7 7 49
1555	474620 11 0 0 0 0 1 7 7 7 49
1556	474631 11 0 0 0 0 1 7 7 7 49
1557	474642 11 0 0 0 0 1 7 7 7 49
1558	474653 11 0 0 0 0 1 7 7 7 49
1559	474664 11 0 0 0 0 1 7 7 7 49
1560	474675 11 0 0 0 0 1 7 7 7 49
1561	474686 11 0 0 0 0 1 7 7 7 49
1562	474697 11 0 0 0 0 1 7 7 7 49
1563	474708 11 0 0 0 0 1 7 7 7 49
1564	474719 11 0 0 0 0 1 7 7 7 49
1565	474730 11 0 0 0 0 1 7 7 7 49
1566	474741 11 0 0 0 0 1 7 7 7 49
1567	474752 11 0 0 0 0 1 7 7 7 49
1568	474763 11 0 0 0 0 1 7 7 7 49
1569	474774 11 0 0 0 0 1 7 7 7 49
1570	474785 11 0 0 0 0 1 7 7 7 49
1571	474796 11 0 0 0 0 1 7 7 7 49
1572	474807 11 0 0 0 0 1 7 7 7 49
1573	474818 11 0 0 0 0 1 7 7 7 49
1574	474829 11 0 0 0 0 1 7 7 7 49
1575	474840 11 0 0 0 0 1 7 7 7 49
1576	474851 11 0 0 0 0 1 7 7 7 49
1577	474862 11 0 0 0 0 1 7 7 7 49
1578	474873 11 0 0 0 0 1 7 7 7 49
1579	474884 11 0 0 0 0 1 7 7 7 49
1580	474895 11 0 0 0 0 1 7 7 7 49
1581	474906 11 0 0 0 0 1 7 7 7 49
1582	474917 11 0 0 0 0 1 7 7 7 49
1583	474928 11 0 0 0 0 1 7 7 7 49
1584	474939 11 0 0 0 0 1 7 7 7 49
1585	474950 11 0 0 0 0 1 7 7 7 49
1586	474961 11 0 0 0 0 1 7 7 7 49
1587	474972 11 0 0 0 0 1 7 7 7 49
1588	474983 11 0 0 0 0 1 7 7 7 49
1589	474994 11 0 0 0 0 1 7 7 7 49
1590	475005 11 0 0 0 0 1 7 7 7 49
1591	475016 11 0 0 0 0 1 7 7 7 49
1592	475027 11 0 0 0 0 1 7 7 7 49
1593	475038 11 0 0 0 0 1 7 7 7 49
1594	475049 11 0 0 0 0 1 7 7 7 49
1595	475060 11 0 0 0 0 1 7 7 7 49
1596	475071 11 0 0 0 0 1 7 7 7 49
1597	475082 11 0 0 0 0 1 7 7 7 49
1598	475093 11 0 0 0 0 1 7 7 7 49
1599	475104 11 0 0 0 0 1 7 7 7 49
1600	475115 11 0 0 0 0 1 7 7 7 49
1601	475126 11 0 0 0 0 1 7 7 7 49
1602	475137 11 0 0 0 0 1 7 7 7 49
1603	475148 11 0 0 0 0 1 7 7 7 49
1604	475159 11 0 0 0 0 1 7 7 7 49
1605	475170 11 0 0 0 0 1 7 7 7 49
1606	475181 11 0 0 0 0 1 7 7 7 49
1607	475192 11 0 0 0 0 1 7 7 7 49
1608	475203 11 0 0 0 0 1 7 7 7 49
1609	475214 11 0 0 0 0 1 7 7 7 49
1610	475225 11 0 0 0 0 1 7 7 7 49
1611	475236 11 0 0 0 0 1 7 7 7 49
1612	475247 11 0 0 0 0 1 7 7 7 49
1613	475258 11 0 0 0 0 1 7 7 7 49
1614	475269 11 0 0 0 0 1 7 7 7 49
1615	475280 11 0 0 0 0 1 7 7 7 49
1616	475291 11 0 0 0 0 1 7 7 7 49
1617	475302 11 0 0 0 0 1 7 7 7 49
1618	475313 11 0 0 0 0 1 7 7 7 49
1619	475324 11 0 0 0 0 1 7 7 7 49
1620	475335 11 0 0 0 0 1 7 7 7 49
1621	475346 11 0 0 0 0 1 7 7 7 49
1622	475357 11 0 0 0 0 1 7 7 7 49
1623	475368 11 0 0 0 0 1 7 7 7 49
1624	475379 11 0 0 0 0 1 7 7 7 49
1625	475390 11 0 0 0 0 1 7 7 7 49
1626	475401 11 0 0 0 0 1 7 7 7 49
1627	475412 11 0 0 0 0 1 7 7 7 49
1628	475423 11 0 0 0 0 1 7 7 7 49
1629	475434 11 0 0 0 0 1 7 7 7 49
1630	475445 11 0 0 0 0 1 7 7 7 49
1631	475456 11 0 0 0 0 1 7 7 7 49
1632	475467 11 0 0 0 0 1 7 7 7 49
1633	475478 11 0 0 0 0 1 7 7 7 49
1634	475489 11 0 0 0 0 1 7 7 7 49
1635	475500 11 0 0 0 0 1 7 7 7 49
1636	475511 11 0 0 0 0 1 7 7 7 49
1637	475522 11 0 0 0 0 1 7 7 7 49
1638	475533 11 0 0 0 0 1 7 7 7 49
1639	475544 11 0 0 0 0 1 7 7 7 49
1640	475555 11 0 0 0 0 1 7 7 7 49
1641	475566 11 0 0 0 0 1 7 7 7 49
1642	475577 11 0 0 0 0 1 7 7 7 49
1643	475588 11 0 0 0 0 1 7 7 7 49

