file 302173 1695356681                                          
version 3
run AirportOperation1-0-20230922-07:24:21-33687
attr configname AirportOperation1
attr datetime 20230922-07:24:21
attr datetimef 20230922-072421
attr experiment AirportOperation1
attr inifile omnetpp.ini
attr iterationvars ""
attr iterationvarsd ""
attr iterationvarsf ""
attr measurement ""
attr network AirportNetwork
attr processid 33687
attr repetition 0
attr replication #0
attr resultdir results
attr runnumber 0
attr seedset 0
config image-path ../../inet4.5/images
config network AirportNetwork
config description "Single Airport Single Wifi Ground Operation Network"
config *.configurator.config "xmldoc(\"AeroCommNetwok.xml\")"
config *.*Agent.numApps 1
config *.*Agent.app[0].typename AcpAgentApp
config *.istAreaAgent.app[0].nodeName "\"ISTAGENT\""
config *.ankAreaAgent.app[0].nodeName "\"ANKAGENT\""
config **.atm*Router.hasDhcp true
config *.atmSawRouter.dhcp.numReservedAddresses 2
config *.atmSawRouter.dhcp.leaseTime 10000s
config *.atmSawRouter.dhcp.maxNumClients 2
config *.atmSawRouter.dhcp.interface "\"eth2\""
config *.atmEsbRouter.dhcp.numReservedAddresses 2
config *.atmEsbRouter.dhcp.leaseTime 10000s
config *.atmEsbRouter.dhcp.maxNumClients 1
config *.atmEsbRouter.dhcp.interface "\"eth2\""
config **.*AP.wlan[*].mgmt.typename Ieee80211MgmtAp
config **.*AP.wlan[*].radio.transmitter.power 10000mW
config **.*AP.wlan[*].radio.displayCommunicationRange true
config **.*AP.wlan[*].mgmt.beaconInterval 100ms
config **.*AP.wlan[*].radio.transmitter.headerLength 96b
config **.*AP.wlan[*].radio.receiver.sensitivity -85dBm
config **.*AP.wlan[*].radio.receiver.snirThreshold 4dB
config *.atmSawAP.wlan[*].mgmt.ssid "\"SAWAP\""
config *.atmSawAP.wlan[*].radio.channelNumber 2
config *.atmEsbAP.wlan[*].radio.channelNumber 3
config *.atmEsbAP.wlan[*].mgmt.ssid "\"ESBAP\""
config *.sawTower.numApps 1
config *.sawTower.app[0].typename AcpClientApp
config *.sawTower.app[0].atcAgentName "\"ISTAGENT\""
config *.sawTower.app[0].atcAgentConnAddr "\"istAreaAgent\""
config *.sawTower.app[0].nodeName "\"SAWTOWER\""
config *.sawTower.app[0].adjAtcName "\"ESBTOWER\""
config *.sawTower.app[0].adjAtcConnAgentName "\"ANKAGENT\""
config *.sawTower.app[0].adjAtcConnAgentAddr "\"ankAreaAgent\""
config *.esbTower.numApps 1
config *.esbTower.app[0].typename AcpClientApp
config *.esbTower.app[0].atcAgentName "\"ANKAGENT\""
config *.esbTower.app[0].atcAgentConnAddr "\"ankAreaAgent\""
config *.esbTower.app[0].nodeName "\"ESBTOWER\""
config *.esbTower.app[0].adjAtcName "\"ESBGROUND\""
config *.esbTower.app[0].adjAtcConnAgentName "\"ANKAGENT\""
config *.esbTower.app[0].adjAtcConnAgentAddr "\"ankAreaAgent\""
config *.*Flight.numApps 2
config *.*Flight.wlan[*].mgmt.typename Ieee80211MgmtSta
config *.*Flight.wlan[*].radio.transmitter.power 1000mW
config *.*Flight.wlan[*].radio.displayCommunicationRange true
config *.*Flight.wlan[*].radio.channelNumber 0
config *.*Flight.wlan[*].agent.defaultSsid "\"\""
config *.*Flight.wlan[0].agent.activeScan true
config *.*Flight.wlan[0].agent.channelsToScan "\"\""
config *.*Flight.wlan[0].agent.probeDelay 0.1s
config *.*Flight.wlan[0].agent.minChannelTime 0.15s
config *.*Flight.wlan[0].agent.maxChannelTime 0.3s
config *.*Flight.wlan[0].agent.startingTime 0.00001s
config *.*Flight.wlan[0].agent.associationTimeout 5s
config *.*Flight.wlan[0].agent.authenticationTimeout 5s
config *.thyFlight.app[0].typename DhcpClient
config *.thyFlight.app[1].typename AcpClientApp
config *.thyFlight.app[1].nodeName "\"THY01\""
config *.thyFlight.app[1].currentDataAuthorityName "\"SAWTOWER\""
config *.thyFlight.app[1].nextDataAuthorityName "\"ESBTOWER\""
config *.thyFlight.app[1].atcAgentName "\"ISTAGENT\""
config *.thyFlight.app[1].atcAgentConnAddr "\"istAreaAgent\""
config *.thyFlight.mobility.typename LinearMobility
config *.thyFlight.mobility.initFromDisplayString true
config *.thyFlight.mobility.speed 30mps
config *.*Flight.mobility.updateInterval 100ms
config *.thyFlight.mobility.initialMovementHeading 360deg
config description "Aeronautical Communication Network"
config network AirportNetwork
config *.configurator.dumpAddresses true
config *.configurator.dumpTopology true
config *.configurator.dumpLinks true
config *.configurator.dumpRoutes true
config *.*.ipv4.arp.typename GlobalArp
config *.*.ipv4.routingTable.netmaskRoutes "\"\""
config **.forwarding true
config **.mgmt.numChannels 13
config *.*.wlan[*].bitrate 54Mbps
config **.analogModel.ignorePartialInterference true
config **.wlan[*].mac.headerLength 1B
config **.wlan[*].mgmt.numAuthSteps 4
config **.wlan[*].mac.dcf.channelAccess.cwMin 7
config **.constraintAreaMinX 0m
config **.constraintAreaMinY 0m
config **.constraintAreaMinZ 0m
config **.constraintAreaMaxX 100000m
config **.constraintAreaMaxY 100000m
config **.constraintAreaMaxZ 0m
config *.visualizer.routingTableVisualizer.displayRoutingTables false
config *.visualizer.routingTableVisualizer.destinationFilter "\"*\""
config *.visualizer.routingTableVisualizer.lineShift 0
config *.visualizer.routingTableVisualizer.labelFormat "\"\""
config **.visualizer.ieee80211Visualizer.displayAssociations true
config **.visualizer.mediumVisualizer.displaySignals true
config **.visualizer.mediumVisualizer.displaySignalArrivals false
config **.visualizer.mediumVisualizer.displaySignalDepartures false
config **.visualizer.mediumVisualizer.displayReceptions false
config **.visualizer.mediumVisualizer.displayTransmissions false
config **.visualizer.mediumVisualizer.displayCommunicationRanges true
config **.visualizer.mediumVisualizer.displayInterferenceRanges false
config **.visualizer.physicalLinkVisualizer.displayLinks true
config **.visualizer.networkRouteVisualizer.displayRoutes true
config **.visualizer.networkRouteVisualizer.packetFilter "\"LOGON\""
config **.visualizer.networkRouteVisualizer.fadeOutMode "\"simulationTime\""
config **.visualizer.networkRouteVisualizer.fadeOutTime 5s
config **.visualizer.pathVisualizer.displayRoutes true
config **.visualizer.pathVisualizer.fadeOutTime 3s
config **.visualizer.dataLinkVisualizer.displayLinks true
config **.visualizer.dataLinkVisualizer.fadeOutMode "\"simulationTime\""
config **.visualizer.dataLinkVisualizer.fadeOutTime 1.4s
config **.visualizer.dataLinkVisualizer.packetFilter "\"LOGON\""
config **.visualizer.dataLinkVisualizer.nodeFilter "\"*\""
config **.visualizer.interfaceTableVisualizer.displayInterfaceTables false
config **.visualizer.interfaceTableVisualizer.nodeFilter "\"*\""
config **.visualizer.interfaceTableVisualizer.interfaceFilter "\"not lo* and not ipv4Address =~ '<unspec>'\""
config **.visualizer.mobilityVisualizer.animationSpeed 1
config **.visualizer.mobilityVisualizer.displayMovementTrails true
config **.visualizer.mobilityVisualizer.trailLength 50
config **.visualizer.mobilityVisualizer.displayVelocities true
config **.visualizer.mobilityVisualizer.displayOrientations true
config **.visualizer.transportConnectionVisualizer.displayTransportConnections true
config **.visualizer.transportConnectionVisualizer.destinationPortFilter "\"1000\""
config **.visualizer.transportConnectionVisualizer.placementHint "\"topCenter\""
config **.visualizer.transportRouteVisualizer.displayRoutes true
config **.visualizer.transportRouteVisualizer.fadeOutMode "\"simulationTime\""
config **.visualizer.transportRouteVisualizer.fadeOutTime 1.2s
config **.visualizer.transportRouteVisualizer.packetFilter "\"LOGON\""
config **.visualizer.transportRouteVisualizer.nodeFilter "\"*\""
config **.visualizer.packetDropVisualizer.displayPacketDrops false
config **.visualizer.packetDropVisualizer.labelFormat "\"name:%n /reason: %r/class:%c\""
config **.visualizer.packetDropVisualizer.fadeOutTime 3s

vector 0 AirportNetwork.istAreaAgent.udp passedUpPk:vector(count) ETV
attr interpolationmode none
attr recordingmode vector(count)
attr source packetSentToUpper
attr title "packets passed up, count"
vector 1 AirportNetwork.istAreaAgent.udp droppedPkWrongPort:vector(count) ETV
attr interpolationmode none
attr recordingmode vector(count)
attr source packetDropReasonIsNoPortFound(packetDropped)
attr title "packets dropped (wrong port), count"
vector 2 AirportNetwork.istAreaAgent.udp droppedPkBadChecksum:vector(count) ETV
attr interpolationmode none
attr recordingmode vector(count)
attr source packetDropReasonIsIncorrectlyReceived(packetDropped)
attr title "packets dropped (checksum error), count"
vector 3 AirportNetwork.ankAreaAgent.udp passedUpPk:vector(count) ETV
attr interpolationmode none
attr recordingmode vector(count)
attr source packetSentToUpper
attr title "packets passed up, count"
vector 4 AirportNetwork.ankAreaAgent.udp droppedPkWrongPort:vector(count) ETV
attr interpolationmode none
attr recordingmode vector(count)
attr source packetDropReasonIsNoPortFound(packetDropped)
attr title "packets dropped (wrong port), count"
vector 5 AirportNetwork.ankAreaAgent.udp droppedPkBadChecksum:vector(count) ETV
attr interpolationmode none
attr recordingmode vector(count)
attr source packetDropReasonIsIncorrectlyReceived(packetDropped)
attr title "packets dropped (checksum error), count"
vector 6 AirportNetwork.atmEsbRouter.udp passedUpPk:vector(count) ETV
attr interpolationmode none
attr recordingmode vector(count)
attr source packetSentToUpper
attr title "packets passed up, count"
vector 7 AirportNetwork.atmEsbRouter.udp droppedPkWrongPort:vector(count) ETV
attr interpolationmode none
attr recordingmode vector(count)
attr source packetDropReasonIsNoPortFound(packetDropped)
attr title "packets dropped (wrong port), count"
vector 8 AirportNetwork.atmEsbRouter.udp droppedPkBadChecksum:vector(count) ETV
attr interpolationmode none
attr recordingmode vector(count)
attr source packetDropReasonIsIncorrectlyReceived(packetDropped)
attr title "packets dropped (checksum error), count"
vector 9 AirportNetwork.atmSawRouter.udp passedUpPk:vector(count) ETV
attr interpolationmode none
attr recordingmode vector(count)
attr source packetSentToUpper
attr title "packets passed up, count"
vector 10 AirportNetwork.atmSawRouter.udp droppedPkWrongPort:vector(count) ETV
attr interpolationmode none
attr recordingmode vector(count)
attr source packetDropReasonIsNoPortFound(packetDropped)
attr title "packets dropped (wrong port), count"
vector 11 AirportNetwork.atmSawRouter.udp droppedPkBadChecksum:vector(count) ETV
attr interpolationmode none
attr recordingmode vector(count)
attr source packetDropReasonIsIncorrectlyReceived(packetDropped)
attr title "packets dropped (checksum error), count"
vector 12 AirportNetwork.atmSawAP.wlan[0].mac.dcf frameSequenceActive:vector ETV
attr autoWarmupFilter false
attr interpolationmode sample-hold
attr recordingmode vector
attr source warmup(count(frameSequenceStarted)-count(frameSequenceFinished))
attr title "frame sequence active"
vector 13 AirportNetwork.atmSawAP.wlan[0].mac.dcf.channelAccess.inProgressFrames queueLength:vector ETV
attr autoWarmupFilter false
attr interpolationmode sample-hold
attr recordingmode vector
attr source "warmup(count(packetEnqueued) - count(packetDequeued))"
attr title "queue length"
vector 14 AirportNetwork.atmSawAP.wlan[0].mac.dcf.channelAccess.contention backoffActive:vector ETV
attr autoWarmupFilter false
attr interpolationmode sample-hold
attr recordingmode vector
attr source warmup(count(backoffStarted)-count(backoffStopped))
attr title "backoff active"
vector 15 AirportNetwork.atmEsbAP.wlan[0].mac.dcf frameSequenceActive:vector ETV
attr autoWarmupFilter false
attr interpolationmode sample-hold
attr recordingmode vector
attr source warmup(count(frameSequenceStarted)-count(frameSequenceFinished))
attr title "frame sequence active"
vector 16 AirportNetwork.atmEsbAP.wlan[0].mac.dcf.channelAccess.inProgressFrames queueLength:vector ETV
attr autoWarmupFilter false
attr interpolationmode sample-hold
attr recordingmode vector
attr source "warmup(count(packetEnqueued) - count(packetDequeued))"
attr title "queue length"
vector 17 AirportNetwork.atmEsbAP.wlan[0].mac.dcf.channelAccess.contention backoffActive:vector ETV
attr autoWarmupFilter false
attr interpolationmode sample-hold
attr recordingmode vector
attr source warmup(count(backoffStarted)-count(backoffStopped))
attr title "backoff active"
vector 18 AirportNetwork.sawDelivery.udp passedUpPk:vector(count) ETV
attr interpolationmode none
attr recordingmode vector(count)
attr source packetSentToUpper
attr title "packets passed up, count"
vector 19 AirportNetwork.sawDelivery.udp droppedPkWrongPort:vector(count) ETV
attr interpolationmode none
attr recordingmode vector(count)
attr source packetDropReasonIsNoPortFound(packetDropped)
attr title "packets dropped (wrong port), count"
vector 20 AirportNetwork.sawDelivery.udp droppedPkBadChecksum:vector(count) ETV
attr interpolationmode none
attr recordingmode vector(count)
attr source packetDropReasonIsIncorrectlyReceived(packetDropped)
attr title "packets dropped (checksum error), count"
vector 21 AirportNetwork.sawGround.udp passedUpPk:vector(count) ETV
attr interpolationmode none
attr recordingmode vector(count)
attr source packetSentToUpper
attr title "packets passed up, count"
vector 22 AirportNetwork.sawGround.udp droppedPkWrongPort:vector(count) ETV
attr interpolationmode none
attr recordingmode vector(count)
attr source packetDropReasonIsNoPortFound(packetDropped)
attr title "packets dropped (wrong port), count"
vector 23 AirportNetwork.sawGround.udp droppedPkBadChecksum:vector(count) ETV
attr interpolationmode none
attr recordingmode vector(count)
attr source packetDropReasonIsIncorrectlyReceived(packetDropped)
attr title "packets dropped (checksum error), count"
vector 24 AirportNetwork.sawTower.udp passedUpPk:vector(count) ETV
attr interpolationmode none
attr recordingmode vector(count)
attr source packetSentToUpper
attr title "packets passed up, count"
vector 25 AirportNetwork.sawTower.udp droppedPkWrongPort:vector(count) ETV
attr interpolationmode none
attr recordingmode vector(count)
attr source packetDropReasonIsNoPortFound(packetDropped)
attr title "packets dropped (wrong port), count"
vector 26 AirportNetwork.sawTower.udp droppedPkBadChecksum:vector(count) ETV
attr interpolationmode none
attr recordingmode vector(count)
attr source packetDropReasonIsIncorrectlyReceived(packetDropped)
attr title "packets dropped (checksum error), count"
vector 27 AirportNetwork.esbTower.udp passedUpPk:vector(count) ETV
attr interpolationmode none
attr recordingmode vector(count)
attr source packetSentToUpper
attr title "packets passed up, count"
vector 28 AirportNetwork.esbTower.udp droppedPkWrongPort:vector(count) ETV
attr interpolationmode none
attr recordingmode vector(count)
attr source packetDropReasonIsNoPortFound(packetDropped)
attr title "packets dropped (wrong port), count"
vector 29 AirportNetwork.esbTower.udp droppedPkBadChecksum:vector(count) ETV
attr interpolationmode none
attr recordingmode vector(count)
attr source packetDropReasonIsIncorrectlyReceived(packetDropped)
attr title "packets dropped (checksum error), count"
vector 30 AirportNetwork.esbGround.udp passedUpPk:vector(count) ETV
attr interpolationmode none
attr recordingmode vector(count)
attr source packetSentToUpper
attr title "packets passed up, count"
vector 31 AirportNetwork.esbGround.udp droppedPkWrongPort:vector(count) ETV
attr interpolationmode none
attr recordingmode vector(count)
attr source packetDropReasonIsNoPortFound(packetDropped)
attr title "packets dropped (wrong port), count"
vector 32 AirportNetwork.esbGround.udp droppedPkBadChecksum:vector(count) ETV
attr interpolationmode none
attr recordingmode vector(count)
attr source packetDropReasonIsIncorrectlyReceived(packetDropped)
attr title "packets dropped (checksum error), count"
vector 33 AirportNetwork.esbDelivery.udp passedUpPk:vector(count) ETV
attr interpolationmode none
attr recordingmode vector(count)
attr source packetSentToUpper
attr title "packets passed up, count"
vector 34 AirportNetwork.esbDelivery.udp droppedPkWrongPort:vector(count) ETV
attr interpolationmode none
attr recordingmode vector(count)
attr source packetDropReasonIsNoPortFound(packetDropped)
attr title "packets dropped (wrong port), count"
vector 35 AirportNetwork.esbDelivery.udp droppedPkBadChecksum:vector(count) ETV
attr interpolationmode none
attr recordingmode vector(count)
attr source packetDropReasonIsIncorrectlyReceived(packetDropped)
attr title "packets dropped (checksum error), count"
vector 36 AirportNetwork.thyFlight.wlan[0].mac.dcf frameSequenceActive:vector ETV
attr autoWarmupFilter false
attr interpolationmode sample-hold
attr recordingmode vector
attr source warmup(count(frameSequenceStarted)-count(frameSequenceFinished))
attr title "frame sequence active"
vector 37 AirportNetwork.thyFlight.wlan[0].mac.dcf.channelAccess.inProgressFrames queueLength:vector ETV
attr autoWarmupFilter false
attr interpolationmode sample-hold
attr recordingmode vector
attr source "warmup(count(packetEnqueued) - count(packetDequeued))"
attr title "queue length"
vector 38 AirportNetwork.thyFlight.wlan[0].mac.dcf.channelAccess.contention backoffActive:vector ETV
attr autoWarmupFilter false
attr interpolationmode sample-hold
attr recordingmode vector
attr source warmup(count(backoffStarted)-count(backoffStopped))
attr title "backoff active"
vector 39 AirportNetwork.thyFlight.udp passedUpPk:vector(count) ETV
attr interpolationmode none
attr recordingmode vector(count)
attr source packetSentToUpper
attr title "packets passed up, count"
vector 40 AirportNetwork.thyFlight.udp droppedPkWrongPort:vector(count) ETV
attr interpolationmode none
attr recordingmode vector(count)
attr source packetDropReasonIsNoPortFound(packetDropped)
attr title "packets dropped (wrong port), count"
vector 41 AirportNetwork.thyFlight.udp droppedPkBadChecksum:vector(count) ETV
attr interpolationmode none
attr recordingmode vector(count)
attr source packetDropReasonIsIncorrectlyReceived(packetDropped)
attr title "packets dropped (checksum error), count"
vector 42 AirportNetwork.atmSawAP.wlan[0].radio radioMode:vector ETV
attr interpolationmode sample-hold
attr recordingmode vector
attr source radioModeChanged
attr title "Radio mode"
vector 43 AirportNetwork.atmSawAP.wlan[0].radio radioChannel:vector ETV
attr interpolationmode sample-hold
attr recordingmode vector
attr source radioChannelChanged
attr title "Radio channel"
vector 44 AirportNetwork.atmEsbAP.wlan[0].radio radioMode:vector ETV
attr interpolationmode sample-hold
attr recordingmode vector
attr source radioModeChanged
attr title "Radio mode"
vector 45 AirportNetwork.atmEsbAP.wlan[0].radio radioChannel:vector ETV
attr interpolationmode sample-hold
attr recordingmode vector
attr source radioChannelChanged
attr title "Radio channel"
vector 46 AirportNetwork.thyFlight.wlan[0].radio radioMode:vector ETV
attr interpolationmode sample-hold
attr recordingmode vector
attr source radioModeChanged
attr title "Radio mode"
vector 47 AirportNetwork.thyFlight.wlan[0].radio radioChannel:vector ETV
attr interpolationmode sample-hold
attr recordingmode vector
attr source radioChannelChanged
attr title "Radio channel"
vector 48 AirportNetwork.atmSawAP.wlan[0].radio receptionState:vector ETV
attr interpolationmode sample-hold
attr recordingmode vector
attr source receptionStateChanged
attr title "Radio reception state"
vector 49 AirportNetwork.atmSawAP.wlan[0].mac.dcf.channelAccess.contention stateChanged:vector ETV
attr enum IDLE,DEFER,IFS_AND_BACKOFF
attr interpolationmode none
attr recordingmode vector
attr title "contention state changed"
attr type enum
vector 50 AirportNetwork.atmEsbAP.wlan[0].radio receptionState:vector ETV
attr interpolationmode sample-hold
attr recordingmode vector
attr source receptionStateChanged
attr title "Radio reception state"
vector 51 AirportNetwork.atmEsbAP.wlan[0].mac.dcf.channelAccess.contention stateChanged:vector ETV
attr enum IDLE,DEFER,IFS_AND_BACKOFF
attr interpolationmode none
attr recordingmode vector
attr title "contention state changed"
attr type enum
vector 52 AirportNetwork.thyFlight.wlan[0].radio receptionState:vector ETV
attr interpolationmode sample-hold
attr recordingmode vector
attr source receptionStateChanged
attr title "Radio reception state"
vector 53 AirportNetwork.thyFlight.wlan[0].mac.dcf.channelAccess.contention stateChanged:vector ETV
attr enum IDLE,DEFER,IFS_AND_BACKOFF
attr interpolationmode none
attr recordingmode vector
attr title "contention state changed"
attr type enum
vector 54 AirportNetwork.atmSawAP.wlan[0].mac.dcf.recoveryProcedure contentionWindowChanged:vector ETV
attr interpolationmode sample-hold
attr recordingmode vector
attr title "contention window"
vector 55 AirportNetwork.atmEsbAP.wlan[0].mac.dcf.recoveryProcedure contentionWindowChanged:vector ETV
attr interpolationmode sample-hold
attr recordingmode vector
attr title "contention window"
vector 56 AirportNetwork.thyFlight.wlan[0].mac.dcf.recoveryProcedure contentionWindowChanged:vector ETV
attr interpolationmode sample-hold
attr recordingmode vector
attr title "contention window"
vector 57 AirportNetwork.sawTower.tcp.conn-8 tcpRcvQueueBytes:vector ETV
attr interpolationmode sample-hold
attr recordingmode vector
vector 58 AirportNetwork.sawTower.tcp.conn-8 rcvAdv:vector ETV
attr interpolationmode sample-hold
attr recordingmode vector
vector 59 AirportNetwork.sawTower.tcp.conn-8 rcvWnd:vector ETV
attr interpolationmode sample-hold
attr recordingmode vector
vector 60 AirportNetwork.sawTower.tcp.conn-8 sndAck:vector ETV
attr interpolationmode sample-hold
attr recordingmode vector
vector 61 AirportNetwork.esbTower.tcp.conn-9 tcpRcvQueueBytes:vector ETV
attr interpolationmode sample-hold
attr recordingmode vector
vector 62 AirportNetwork.esbTower.tcp.conn-9 rcvAdv:vector ETV
attr interpolationmode sample-hold
attr recordingmode vector
vector 63 AirportNetwork.esbTower.tcp.conn-9 rcvWnd:vector ETV
attr interpolationmode sample-hold
attr recordingmode vector
vector 64 AirportNetwork.esbTower.tcp.conn-9 sndAck:vector ETV
attr interpolationmode sample-hold
attr recordingmode vector
vector 65 AirportNetwork.thyFlight.udp packetSent:vector(packetBytes) ETV
attr interpolationmode none
attr recordingmode vector(packetBytes)
attr source packetSent
attr title "packets sent, packetBytes"
vector 66 AirportNetwork.sawTower.ethernet encapPk:vector(packetBytes) ETV
attr interpolationmode none
attr recordingmode vector(packetBytes)
attr source encapPk
attr title "packets encapsulated, packetBytes"
vector 67 AirportNetwork.esbTower.ethernet encapPk:vector(packetBytes) ETV
attr interpolationmode none
attr recordingmode vector(packetBytes)
attr source encapPk
attr title "packets encapsulated, packetBytes"
vector 68 AirportNetwork.sawTower.eth[0].queue incomingPacketLengths:vector ETV
attr interpolationmode none
attr recordingmode vector
attr source packetLength(packetPushStarted)
attr title "incoming packet lengths"
attr unit b
vector 69 AirportNetwork.sawTower.eth[0].queue queueingTime:vector ETV
attr interpolationmode none
attr recordingmode vector
attr source queueingTime(packetPulled)
attr title "queueing times"
attr unit s
vector 70 AirportNetwork.sawTower.eth[0].queue outgoingPacketLengths:vector ETV
attr interpolationmode none
attr recordingmode vector
attr source packetLength(packetPulled)
attr title "outgoing packet lengths"
attr unit b
vector 71 AirportNetwork.sawTower.eth[0].mac packetReceivedFromUpper:vector(packetBytes) ETV
attr interpolationmode none
attr recordingmode vector(packetBytes)
attr source packetReceivedFromUpper
attr title "packet bytes from higher layer, packetBytes"
vector 72 AirportNetwork.sawTower.eth[0].queue queueLength:vector ETV
attr autoWarmupFilter false
attr interpolationmode sample-hold
attr recordingmode vector
attr source "warmup(atomic(constant0(packetPushEnded) + count(packetPushStarted) - count(packetPulled) - count(packetRemoved) - count(packetDropped)))"
attr title "queue length"
attr unit pk
vector 73 AirportNetwork.sawTower.eth[0].queue queueBitLength:vector ETV
attr autoWarmupFilter false
attr interpolationmode sample-hold
attr recordingmode vector
attr source "warmup(atomic(constant0(packetPushEnded) + sum(packetLength(packetPushStarted)) - sum(packetLength(packetPulled)) - sum(packetLength(packetRemoved)) - sum(packetLength(packetDropped))))"
attr title "queue bit length"
attr unit b
vector 74 AirportNetwork.esbTower.eth[0].queue incomingPacketLengths:vector ETV
attr interpolationmode none
attr recordingmode vector
attr source packetLength(packetPushStarted)
attr title "incoming packet lengths"
attr unit b
vector 75 AirportNetwork.esbTower.eth[0].queue queueingTime:vector ETV
attr interpolationmode none
attr recordingmode vector
attr source queueingTime(packetPulled)
attr title "queueing times"
attr unit s
vector 76 AirportNetwork.esbTower.eth[0].queue outgoingPacketLengths:vector ETV
attr interpolationmode none
attr recordingmode vector
attr source packetLength(packetPulled)
attr title "outgoing packet lengths"
attr unit b
vector 77 AirportNetwork.esbTower.eth[0].mac packetReceivedFromUpper:vector(packetBytes) ETV
attr interpolationmode none
attr recordingmode vector(packetBytes)
attr source packetReceivedFromUpper
attr title "packet bytes from higher layer, packetBytes"
vector 78 AirportNetwork.esbTower.eth[0].queue queueLength:vector ETV
attr autoWarmupFilter false
attr interpolationmode sample-hold
attr recordingmode vector
attr source "warmup(atomic(constant0(packetPushEnded) + count(packetPushStarted) - count(packetPulled) - count(packetRemoved) - count(packetDropped)))"
attr title "queue length"
attr unit pk
vector 79 AirportNetwork.esbTower.eth[0].queue queueBitLength:vector ETV
attr autoWarmupFilter false
attr interpolationmode sample-hold
attr recordingmode vector
attr source "warmup(atomic(constant0(packetPushEnded) + sum(packetLength(packetPushStarted)) - sum(packetLength(packetPulled)) - sum(packetLength(packetRemoved)) - sum(packetLength(packetDropped))))"
attr title "queue bit length"
attr unit b
vector 80 AirportNetwork.thyFlight.wlan[0].mac packetReceivedFromUpper:vector(packetBytes) ETV
attr interpolationmode none
attr recordingmode vector(packetBytes)
attr title "packets received from upper layer, packetBytes"
vector 81 AirportNetwork.thyFlight.wlan[0].mac packetDrop:vector(packetBytes) ETV
attr interpolationmode none
attr recordingmode vector(packetBytes)
attr source packetDropped
attr title "packet drops, packetBytes"
vector 82 AirportNetwork.thyFlight.wlan[0].mac packetDropOther:vector(packetBytes) ETV
attr interpolationmode none
attr recordingmode vector(packetBytes)
attr source packetDropReasonIsOther(packetDropped)
attr title "packet drops: other, packetBytes"
vector 83 AirportNetwork.thyFlight.wlan[0].agent sentRequest:vector ETV
attr recordingmode vector
attr title "sent requests"
vector 84 AirportNetwork.sawTower.eth[0].mac txPk:vector(packetBytes) ETV
attr interpolationmode none
attr recordingmode vector(packetBytes)
attr source packetSentToLower
attr title "packets transmitted, packetBytes"
vector 85 AirportNetwork.esbTower.eth[0].mac txPk:vector(packetBytes) ETV
attr interpolationmode none
attr recordingmode vector(packetBytes)
attr source packetSentToLower
attr title "packets transmitted, packetBytes"
vector 86 AirportNetwork.atmSawSwitch.eth[3].mac rxPkOk:vector(packetBytes) ETV
attr interpolationmode none
attr recordingmode vector(packetBytes)
attr source rxPkOk
attr title "packets received OK, packetBytes"
vector 87 AirportNetwork.atmSawSwitch.eth[3].mac passedUpPk:vector(packetBytes) ETV
attr interpolationmode none
attr recordingmode vector(packetBytes)
attr source packetSentToUpper
attr title "packets passed to higher layer, packetBytes"
vector 88 AirportNetwork.atmEsbSwitch.eth[1].mac rxPkOk:vector(packetBytes) ETV
attr interpolationmode none
attr recordingmode vector(packetBytes)
attr source rxPkOk
attr title "packets received OK, packetBytes"
vector 89 AirportNetwork.atmEsbSwitch.eth[1].mac passedUpPk:vector(packetBytes) ETV
attr interpolationmode none
attr recordingmode vector(packetBytes)
attr source packetSentToUpper
attr title "packets passed to higher layer, packetBytes"
vector 90 AirportNetwork.atmSawSwitch.ethernet decapPk:vector(packetBytes) ETV
attr interpolationmode none
attr recordingmode vector(packetBytes)
attr source decapPk
attr title "packets decapsulated, packetBytes"
vector 91 AirportNetwork.atmEsbSwitch.ethernet decapPk:vector(packetBytes) ETV
attr interpolationmode none
attr recordingmode vector(packetBytes)
attr source decapPk
attr title "packets decapsulated, packetBytes"
vector 92 AirportNetwork.atmSawSwitch.ethernet encapPk:vector(packetBytes) ETV
attr interpolationmode none
attr recordingmode vector(packetBytes)
attr source encapPk
attr title "packets encapsulated, packetBytes"
vector 93 AirportNetwork.atmEsbSwitch.ethernet encapPk:vector(packetBytes) ETV
attr interpolationmode none
attr recordingmode vector(packetBytes)
attr source encapPk
attr title "packets encapsulated, packetBytes"
vector 94 AirportNetwork.atmSawSwitch.eth[0].queue incomingPacketLengths:vector ETV
attr interpolationmode none
attr recordingmode vector
attr source packetLength(packetPushStarted)
attr title "incoming packet lengths"
attr unit b
vector 95 AirportNetwork.atmSawSwitch.eth[0].queue queueingTime:vector ETV
attr interpolationmode none
attr recordingmode vector
attr source queueingTime(packetPulled)
attr title "queueing times"
attr unit s
vector 96 AirportNetwork.atmSawSwitch.eth[0].queue outgoingPacketLengths:vector ETV
attr interpolationmode none
attr recordingmode vector
attr source packetLength(packetPulled)
attr title "outgoing packet lengths"
attr unit b
vector 97 AirportNetwork.atmSawSwitch.eth[0].mac packetReceivedFromUpper:vector(packetBytes) ETV
attr interpolationmode none
attr recordingmode vector(packetBytes)
attr source packetReceivedFromUpper
attr title "packet bytes from higher layer, packetBytes"
vector 98 AirportNetwork.atmSawSwitch.eth[0].queue queueLength:vector ETV
attr autoWarmupFilter false
attr interpolationmode sample-hold
attr recordingmode vector
attr source "warmup(atomic(constant0(packetPushEnded) + count(packetPushStarted) - count(packetPulled) - count(packetRemoved) - count(packetDropped)))"
attr title "queue length"
attr unit pk
vector 99 AirportNetwork.atmSawSwitch.eth[0].queue queueBitLength:vector ETV
attr autoWarmupFilter false
attr interpolationmode sample-hold
attr recordingmode vector
attr source "warmup(atomic(constant0(packetPushEnded) + sum(packetLength(packetPushStarted)) - sum(packetLength(packetPulled)) - sum(packetLength(packetRemoved)) - sum(packetLength(packetDropped))))"
attr title "queue bit length"
attr unit b
vector 100 AirportNetwork.atmSawSwitch.eth[1].queue incomingPacketLengths:vector ETV
attr interpolationmode none
attr recordingmode vector
attr source packetLength(packetPushStarted)
attr title "incoming packet lengths"
attr unit b
vector 101 AirportNetwork.atmSawSwitch.eth[1].queue queueingTime:vector ETV
attr interpolationmode none
attr recordingmode vector
attr source queueingTime(packetPulled)
attr title "queueing times"
attr unit s
vector 102 AirportNetwork.atmSawSwitch.eth[1].queue outgoingPacketLengths:vector ETV
attr interpolationmode none
attr recordingmode vector
attr source packetLength(packetPulled)
attr title "outgoing packet lengths"
attr unit b
vector 103 AirportNetwork.atmSawSwitch.eth[1].mac packetReceivedFromUpper:vector(packetBytes) ETV
attr interpolationmode none
attr recordingmode vector(packetBytes)
attr source packetReceivedFromUpper
attr title "packet bytes from higher layer, packetBytes"
vector 104 AirportNetwork.atmSawSwitch.eth[1].queue queueLength:vector ETV
attr autoWarmupFilter false
attr interpolationmode sample-hold
attr recordingmode vector
attr source "warmup(atomic(constant0(packetPushEnded) + count(packetPushStarted) - count(packetPulled) - count(packetRemoved) - count(packetDropped)))"
attr title "queue length"
attr unit pk
vector 105 AirportNetwork.atmSawSwitch.eth[1].queue queueBitLength:vector ETV
attr autoWarmupFilter false
attr interpolationmode sample-hold
attr recordingmode vector
attr source "warmup(atomic(constant0(packetPushEnded) + sum(packetLength(packetPushStarted)) - sum(packetLength(packetPulled)) - sum(packetLength(packetRemoved)) - sum(packetLength(packetDropped))))"
attr title "queue bit length"
attr unit b
vector 106 AirportNetwork.atmSawSwitch.eth[2].queue incomingPacketLengths:vector ETV
attr interpolationmode none
attr recordingmode vector
attr source packetLength(packetPushStarted)
attr title "incoming packet lengths"
attr unit b
vector 107 AirportNetwork.atmSawSwitch.eth[2].queue queueingTime:vector ETV
attr interpolationmode none
attr recordingmode vector
attr source queueingTime(packetPulled)
attr title "queueing times"
attr unit s
vector 108 AirportNetwork.atmSawSwitch.eth[2].queue outgoingPacketLengths:vector ETV
attr interpolationmode none
attr recordingmode vector
attr source packetLength(packetPulled)
attr title "outgoing packet lengths"
attr unit b
vector 109 AirportNetwork.atmSawSwitch.eth[2].mac packetReceivedFromUpper:vector(packetBytes) ETV
attr interpolationmode none
attr recordingmode vector(packetBytes)
attr source packetReceivedFromUpper
attr title "packet bytes from higher layer, packetBytes"
vector 110 AirportNetwork.atmSawSwitch.eth[2].queue queueLength:vector ETV
attr autoWarmupFilter false
attr interpolationmode sample-hold
attr recordingmode vector
attr source "warmup(atomic(constant0(packetPushEnded) + count(packetPushStarted) - count(packetPulled) - count(packetRemoved) - count(packetDropped)))"
attr title "queue length"
attr unit pk
vector 111 AirportNetwork.atmSawSwitch.eth[2].queue queueBitLength:vector ETV
attr autoWarmupFilter false
attr interpolationmode sample-hold
attr recordingmode vector
attr source "warmup(atomic(constant0(packetPushEnded) + sum(packetLength(packetPushStarted)) - sum(packetLength(packetPulled)) - sum(packetLength(packetRemoved)) - sum(packetLength(packetDropped))))"
attr title "queue bit length"
attr unit b
vector 112 AirportNetwork.atmEsbSwitch.eth[0].queue incomingPacketLengths:vector ETV
attr interpolationmode none
attr recordingmode vector
attr source packetLength(packetPushStarted)
attr title "incoming packet lengths"
attr unit b
vector 113 AirportNetwork.atmEsbSwitch.eth[0].queue queueingTime:vector ETV
attr interpolationmode none
attr recordingmode vector
attr source queueingTime(packetPulled)
attr title "queueing times"
attr unit s
vector 114 AirportNetwork.atmEsbSwitch.eth[0].queue outgoingPacketLengths:vector ETV
attr interpolationmode none
attr recordingmode vector
attr source packetLength(packetPulled)
attr title "outgoing packet lengths"
attr unit b
vector 115 AirportNetwork.atmEsbSwitch.eth[0].mac packetReceivedFromUpper:vector(packetBytes) ETV
attr interpolationmode none
attr recordingmode vector(packetBytes)
attr source packetReceivedFromUpper
attr title "packet bytes from higher layer, packetBytes"
vector 116 AirportNetwork.atmEsbSwitch.eth[0].queue queueLength:vector ETV
attr autoWarmupFilter false
attr interpolationmode sample-hold
attr recordingmode vector
attr source "warmup(atomic(constant0(packetPushEnded) + count(packetPushStarted) - count(packetPulled) - count(packetRemoved) - count(packetDropped)))"
attr title "queue length"
attr unit pk
vector 117 AirportNetwork.atmEsbSwitch.eth[0].queue queueBitLength:vector ETV
attr autoWarmupFilter false
attr interpolationmode sample-hold
attr recordingmode vector
attr source "warmup(atomic(constant0(packetPushEnded) + sum(packetLength(packetPushStarted)) - sum(packetLength(packetPulled)) - sum(packetLength(packetRemoved)) - sum(packetLength(packetDropped))))"
attr title "queue bit length"
attr unit b
vector 118 AirportNetwork.atmEsbSwitch.eth[2].queue incomingPacketLengths:vector ETV
attr interpolationmode none
attr recordingmode vector
attr source packetLength(packetPushStarted)
attr title "incoming packet lengths"
attr unit b
vector 119 AirportNetwork.atmEsbSwitch.eth[2].queue queueingTime:vector ETV
attr interpolationmode none
attr recordingmode vector
attr source queueingTime(packetPulled)
attr title "queueing times"
attr unit s
vector 120 AirportNetwork.atmEsbSwitch.eth[2].queue outgoingPacketLengths:vector ETV
attr interpolationmode none
attr recordingmode vector
attr source packetLength(packetPulled)
attr title "outgoing packet lengths"
attr unit b
vector 121 AirportNetwork.atmEsbSwitch.eth[2].mac packetReceivedFromUpper:vector(packetBytes) ETV
attr interpolationmode none
attr recordingmode vector(packetBytes)
attr source packetReceivedFromUpper
attr title "packet bytes from higher layer, packetBytes"
vector 122 AirportNetwork.atmEsbSwitch.eth[2].queue queueLength:vector ETV
attr autoWarmupFilter false
attr interpolationmode sample-hold
attr recordingmode vector
attr source "warmup(atomic(constant0(packetPushEnded) + count(packetPushStarted) - count(packetPulled) - count(packetRemoved) - count(packetDropped)))"
attr title "queue length"
attr unit pk
vector 123 AirportNetwork.atmEsbSwitch.eth[2].queue queueBitLength:vector ETV
attr autoWarmupFilter false
attr interpolationmode sample-hold
attr recordingmode vector
attr source "warmup(atomic(constant0(packetPushEnded) + sum(packetLength(packetPushStarted)) - sum(packetLength(packetPulled)) - sum(packetLength(packetRemoved)) - sum(packetLength(packetDropped))))"
attr title "queue bit length"
attr unit b
vector 124 AirportNetwork.atmEsbSwitch.eth[3].queue incomingPacketLengths:vector ETV
attr interpolationmode none
attr recordingmode vector
attr source packetLength(packetPushStarted)
attr title "incoming packet lengths"
attr unit b
vector 125 AirportNetwork.atmEsbSwitch.eth[3].queue queueingTime:vector ETV
attr interpolationmode none
attr recordingmode vector
attr source queueingTime(packetPulled)
attr title "queueing times"
attr unit s
vector 126 AirportNetwork.atmEsbSwitch.eth[3].queue outgoingPacketLengths:vector ETV
attr interpolationmode none
attr recordingmode vector
attr source packetLength(packetPulled)
attr title "outgoing packet lengths"
attr unit b
vector 127 AirportNetwork.atmEsbSwitch.eth[3].mac packetReceivedFromUpper:vector(packetBytes) ETV
attr interpolationmode none
attr recordingmode vector(packetBytes)
attr source packetReceivedFromUpper
attr title "packet bytes from higher layer, packetBytes"
vector 128 AirportNetwork.atmEsbSwitch.eth[3].queue queueLength:vector ETV
attr autoWarmupFilter false
attr interpolationmode sample-hold
attr recordingmode vector
attr source "warmup(atomic(constant0(packetPushEnded) + count(packetPushStarted) - count(packetPulled) - count(packetRemoved) - count(packetDropped)))"
attr title "queue length"
attr unit pk
vector 129 AirportNetwork.atmEsbSwitch.eth[3].queue queueBitLength:vector ETV
attr autoWarmupFilter false
attr interpolationmode sample-hold
attr recordingmode vector
attr source "warmup(atomic(constant0(packetPushEnded) + sum(packetLength(packetPushStarted)) - sum(packetLength(packetPulled)) - sum(packetLength(packetRemoved)) - sum(packetLength(packetDropped))))"
attr title "queue bit length"
attr unit b
vector 130 AirportNetwork.atmSawSwitch.eth[0].mac txPk:vector(packetBytes) ETV
attr interpolationmode none
attr recordingmode vector(packetBytes)
attr source packetSentToLower
attr title "packets transmitted, packetBytes"
vector 131 AirportNetwork.atmEsbSwitch.eth[0].mac txPk:vector(packetBytes) ETV
attr interpolationmode none
attr recordingmode vector(packetBytes)
attr source packetSentToLower
attr title "packets transmitted, packetBytes"
vector 132 AirportNetwork.atmSawRouter.eth[1].mac rxPkOk:vector(packetBytes) ETV
attr interpolationmode none
attr recordingmode vector(packetBytes)
attr source rxPkOk
attr title "packets received OK, packetBytes"
vector 133 AirportNetwork.atmSawRouter.eth[1].mac passedUpPk:vector(packetBytes) ETV
attr interpolationmode none
attr recordingmode vector(packetBytes)
attr source packetSentToUpper
attr title "packets passed to higher layer, packetBytes"
vector 134 AirportNetwork.atmEsbRouter.eth[1].mac rxPkOk:vector(packetBytes) ETV
attr interpolationmode none
attr recordingmode vector(packetBytes)
attr source rxPkOk
attr title "packets received OK, packetBytes"
vector 135 AirportNetwork.atmEsbRouter.eth[1].mac passedUpPk:vector(packetBytes) ETV
attr interpolationmode none
attr recordingmode vector(packetBytes)
attr source packetSentToUpper
attr title "packets passed to higher layer, packetBytes"
vector 136 AirportNetwork.atmSawRouter.ethernet decapPk:vector(packetBytes) ETV
attr interpolationmode none
attr recordingmode vector(packetBytes)
attr source decapPk
attr title "packets decapsulated, packetBytes"
vector 137 AirportNetwork.atmEsbRouter.ethernet decapPk:vector(packetBytes) ETV
attr interpolationmode none
attr recordingmode vector(packetBytes)
attr source decapPk
attr title "packets decapsulated, packetBytes"
vector 138 AirportNetwork.atmSawRouter.ethernet encapPk:vector(packetBytes) ETV
attr interpolationmode none
attr recordingmode vector(packetBytes)
attr source encapPk
attr title "packets encapsulated, packetBytes"
vector 139 AirportNetwork.atmEsbRouter.ethernet encapPk:vector(packetBytes) ETV
attr interpolationmode none
attr recordingmode vector(packetBytes)
attr source encapPk
attr title "packets encapsulated, packetBytes"
vector 140 AirportNetwork.atmSawRouter.eth[0].queue incomingPacketLengths:vector ETV
attr interpolationmode none
attr recordingmode vector
attr source packetLength(packetPushStarted)
attr title "incoming packet lengths"
attr unit b
vector 141 AirportNetwork.atmSawRouter.eth[0].queue queueingTime:vector ETV
attr interpolationmode none
attr recordingmode vector
attr source queueingTime(packetPulled)
attr title "queueing times"
attr unit s
vector 142 AirportNetwork.atmSawRouter.eth[0].queue outgoingPacketLengths:vector ETV
attr interpolationmode none
attr recordingmode vector
attr source packetLength(packetPulled)
attr title "outgoing packet lengths"
attr unit b
vector 143 AirportNetwork.atmSawRouter.eth[0].mac packetReceivedFromUpper:vector(packetBytes) ETV
attr interpolationmode none
attr recordingmode vector(packetBytes)
attr source packetReceivedFromUpper
attr title "packet bytes from higher layer, packetBytes"
vector 144 AirportNetwork.atmSawRouter.eth[0].queue queueLength:vector ETV
attr autoWarmupFilter false
attr interpolationmode sample-hold
attr recordingmode vector
attr source "warmup(atomic(constant0(packetPushEnded) + count(packetPushStarted) - count(packetPulled) - count(packetRemoved) - count(packetDropped)))"
attr title "queue length"
attr unit pk
vector 145 AirportNetwork.atmSawRouter.eth[0].queue queueBitLength:vector ETV
attr autoWarmupFilter false
attr interpolationmode sample-hold
attr recordingmode vector
attr source "warmup(atomic(constant0(packetPushEnded) + sum(packetLength(packetPushStarted)) - sum(packetLength(packetPulled)) - sum(packetLength(packetRemoved)) - sum(packetLength(packetDropped))))"
attr title "queue bit length"
attr unit b
vector 146 AirportNetwork.atmEsbRouter.eth[0].queue incomingPacketLengths:vector ETV
attr interpolationmode none
attr recordingmode vector
attr source packetLength(packetPushStarted)
attr title "incoming packet lengths"
attr unit b
vector 147 AirportNetwork.atmEsbRouter.eth[0].queue queueingTime:vector ETV
attr interpolationmode none
attr recordingmode vector
attr source queueingTime(packetPulled)
attr title "queueing times"
attr unit s
vector 148 AirportNetwork.atmEsbRouter.eth[0].queue outgoingPacketLengths:vector ETV
attr interpolationmode none
attr recordingmode vector
attr source packetLength(packetPulled)
attr title "outgoing packet lengths"
attr unit b
vector 149 AirportNetwork.atmEsbRouter.eth[0].mac packetReceivedFromUpper:vector(packetBytes) ETV
attr interpolationmode none
attr recordingmode vector(packetBytes)
attr source packetReceivedFromUpper
attr title "packet bytes from higher layer, packetBytes"
vector 150 AirportNetwork.atmEsbRouter.eth[0].queue queueLength:vector ETV
attr autoWarmupFilter false
attr interpolationmode sample-hold
attr recordingmode vector
attr source "warmup(atomic(constant0(packetPushEnded) + count(packetPushStarted) - count(packetPulled) - count(packetRemoved) - count(packetDropped)))"
attr title "queue length"
attr unit pk
vector 151 AirportNetwork.atmEsbRouter.eth[0].queue queueBitLength:vector ETV
attr autoWarmupFilter false
attr interpolationmode sample-hold
attr recordingmode vector
attr source "warmup(atomic(constant0(packetPushEnded) + sum(packetLength(packetPushStarted)) - sum(packetLength(packetPulled)) - sum(packetLength(packetRemoved)) - sum(packetLength(packetDropped))))"
attr title "queue bit length"
attr unit b
vector 152 AirportNetwork.atmSawRouter.eth[0].mac txPk:vector(packetBytes) ETV
attr interpolationmode none
attr recordingmode vector(packetBytes)
attr source packetSentToLower
attr title "packets transmitted, packetBytes"
vector 153 AirportNetwork.atmEsbRouter.eth[0].mac txPk:vector(packetBytes) ETV
attr interpolationmode none
attr recordingmode vector(packetBytes)
attr source packetSentToLower
attr title "packets transmitted, packetBytes"
vector 154 AirportNetwork.istAreaRouter.eth[2].mac rxPkOk:vector(packetBytes) ETV
attr interpolationmode none
attr recordingmode vector(packetBytes)
attr source rxPkOk
attr title "packets received OK, packetBytes"
vector 155 AirportNetwork.istAreaRouter.eth[2].mac passedUpPk:vector(packetBytes) ETV
attr interpolationmode none
attr recordingmode vector(packetBytes)
attr source packetSentToUpper
attr title "packets passed to higher layer, packetBytes"
vector 156 AirportNetwork.ankAreaRouter.eth[2].mac rxPkOk:vector(packetBytes) ETV
attr interpolationmode none
attr recordingmode vector(packetBytes)
attr source rxPkOk
attr title "packets received OK, packetBytes"
vector 157 AirportNetwork.ankAreaRouter.eth[2].mac passedUpPk:vector(packetBytes) ETV
attr interpolationmode none
attr recordingmode vector(packetBytes)
attr source packetSentToUpper
attr title "packets passed to higher layer, packetBytes"
vector 158 AirportNetwork.istAreaRouter.ethernet decapPk:vector(packetBytes) ETV
attr interpolationmode none
attr recordingmode vector(packetBytes)
attr source decapPk
attr title "packets decapsulated, packetBytes"
vector 159 AirportNetwork.ankAreaRouter.ethernet decapPk:vector(packetBytes) ETV
attr interpolationmode none
attr recordingmode vector(packetBytes)
attr source decapPk
attr title "packets decapsulated, packetBytes"
vector 160 AirportNetwork.istAreaRouter.ethernet encapPk:vector(packetBytes) ETV
attr interpolationmode none
attr recordingmode vector(packetBytes)
attr source encapPk
attr title "packets encapsulated, packetBytes"
vector 161 AirportNetwork.ankAreaRouter.ethernet encapPk:vector(packetBytes) ETV
attr interpolationmode none
attr recordingmode vector(packetBytes)
attr source encapPk
attr title "packets encapsulated, packetBytes"
vector 162 AirportNetwork.istAreaRouter.eth[1].queue incomingPacketLengths:vector ETV
attr interpolationmode none
attr recordingmode vector
attr source packetLength(packetPushStarted)
attr title "incoming packet lengths"
attr unit b
vector 163 AirportNetwork.istAreaRouter.eth[1].queue queueingTime:vector ETV
attr interpolationmode none
attr recordingmode vector
attr source queueingTime(packetPulled)
attr title "queueing times"
attr unit s
vector 164 AirportNetwork.istAreaRouter.eth[1].queue outgoingPacketLengths:vector ETV
attr interpolationmode none
attr recordingmode vector
attr source packetLength(packetPulled)
attr title "outgoing packet lengths"
attr unit b
vector 165 AirportNetwork.istAreaRouter.eth[1].mac packetReceivedFromUpper:vector(packetBytes) ETV
attr interpolationmode none
attr recordingmode vector(packetBytes)
attr source packetReceivedFromUpper
attr title "packet bytes from higher layer, packetBytes"
vector 166 AirportNetwork.istAreaRouter.eth[1].queue queueLength:vector ETV
attr autoWarmupFilter false
attr interpolationmode sample-hold
attr recordingmode vector
attr source "warmup(atomic(constant0(packetPushEnded) + count(packetPushStarted) - count(packetPulled) - count(packetRemoved) - count(packetDropped)))"
attr title "queue length"
attr unit pk
vector 167 AirportNetwork.istAreaRouter.eth[1].queue queueBitLength:vector ETV
attr autoWarmupFilter false
attr interpolationmode sample-hold
attr recordingmode vector
attr source "warmup(atomic(constant0(packetPushEnded) + sum(packetLength(packetPushStarted)) - sum(packetLength(packetPulled)) - sum(packetLength(packetRemoved)) - sum(packetLength(packetDropped))))"
attr title "queue bit length"
attr unit b
vector 168 AirportNetwork.ankAreaRouter.eth[1].queue incomingPacketLengths:vector ETV
attr interpolationmode none
attr recordingmode vector
attr source packetLength(packetPushStarted)
attr title "incoming packet lengths"
attr unit b
vector 169 AirportNetwork.ankAreaRouter.eth[1].queue queueingTime:vector ETV
attr interpolationmode none
attr recordingmode vector
attr source queueingTime(packetPulled)
attr title "queueing times"
attr unit s
vector 170 AirportNetwork.ankAreaRouter.eth[1].queue outgoingPacketLengths:vector ETV
attr interpolationmode none
attr recordingmode vector
attr source packetLength(packetPulled)
attr title "outgoing packet lengths"
attr unit b
vector 171 AirportNetwork.ankAreaRouter.eth[1].mac packetReceivedFromUpper:vector(packetBytes) ETV
attr interpolationmode none
attr recordingmode vector(packetBytes)
attr source packetReceivedFromUpper
attr title "packet bytes from higher layer, packetBytes"
vector 172 AirportNetwork.ankAreaRouter.eth[1].queue queueLength:vector ETV
attr autoWarmupFilter false
attr interpolationmode sample-hold
attr recordingmode vector
attr source "warmup(atomic(constant0(packetPushEnded) + count(packetPushStarted) - count(packetPulled) - count(packetRemoved) - count(packetDropped)))"
attr title "queue length"
attr unit pk
vector 173 AirportNetwork.ankAreaRouter.eth[1].queue queueBitLength:vector ETV
attr autoWarmupFilter false
attr interpolationmode sample-hold
attr recordingmode vector
attr source "warmup(atomic(constant0(packetPushEnded) + sum(packetLength(packetPushStarted)) - sum(packetLength(packetPulled)) - sum(packetLength(packetRemoved)) - sum(packetLength(packetDropped))))"
attr title "queue bit length"
attr unit b
vector 174 AirportNetwork.istAreaRouter.eth[1].mac txPk:vector(packetBytes) ETV
attr interpolationmode none
attr recordingmode vector(packetBytes)
attr source packetSentToLower
attr title "packets transmitted, packetBytes"
vector 175 AirportNetwork.ankAreaRouter.eth[1].mac txPk:vector(packetBytes) ETV
attr interpolationmode none
attr recordingmode vector(packetBytes)
attr source packetSentToLower
attr title "packets transmitted, packetBytes"
vector 176 AirportNetwork.istAreaAgent.eth[0].mac rxPkOk:vector(packetBytes) ETV
attr interpolationmode none
attr recordingmode vector(packetBytes)
attr source rxPkOk
attr title "packets received OK, packetBytes"
vector 177 AirportNetwork.istAreaAgent.eth[0].mac passedUpPk:vector(packetBytes) ETV
attr interpolationmode none
attr recordingmode vector(packetBytes)
attr source packetSentToUpper
attr title "packets passed to higher layer, packetBytes"
vector 178 AirportNetwork.ankAreaAgent.eth[0].mac rxPkOk:vector(packetBytes) ETV
attr interpolationmode none
attr recordingmode vector(packetBytes)
attr source rxPkOk
attr title "packets received OK, packetBytes"
vector 179 AirportNetwork.ankAreaAgent.eth[0].mac passedUpPk:vector(packetBytes) ETV
attr interpolationmode none
attr recordingmode vector(packetBytes)
attr source packetSentToUpper
attr title "packets passed to higher layer, packetBytes"
vector 180 AirportNetwork.istAreaAgent.ethernet decapPk:vector(packetBytes) ETV
attr interpolationmode none
attr recordingmode vector(packetBytes)
attr source decapPk
attr title "packets decapsulated, packetBytes"
vector 181 AirportNetwork.ankAreaAgent.ethernet decapPk:vector(packetBytes) ETV
attr interpolationmode none
attr recordingmode vector(packetBytes)
attr source decapPk
attr title "packets decapsulated, packetBytes"
vector 182 AirportNetwork.istAreaAgent.tcp.conn-0 rcvSeq:vector ETV
attr interpolationmode sample-hold
attr recordingmode vector
vector 183 AirportNetwork.istAreaAgent.tcp.conn-0 rcvAck:vector ETV
attr interpolationmode sample-hold
attr recordingmode vector
vector 184 AirportNetwork.istAreaAgent.tcp.conn-0 tcpRcvPayloadBytes:vector ETV
attr interpolationmode sample-hold
attr recordingmode vector
vector 185 AirportNetwork.istAreaAgent.tcp.conn-10 rcvAdv:vector ETV
attr interpolationmode sample-hold
attr recordingmode vector
vector 186 AirportNetwork.istAreaAgent.tcp.conn-10 sndWnd:vector ETV
attr interpolationmode sample-hold
attr recordingmode vector
vector 187 AirportNetwork.istAreaAgent.tcp.conn-10 tcpRcvQueueBytes:vector ETV
attr interpolationmode sample-hold
attr recordingmode vector
vector 188 AirportNetwork.istAreaAgent.tcp.conn-10 rcvWnd:vector ETV
attr interpolationmode sample-hold
attr recordingmode vector
vector 189 AirportNetwork.istAreaAgent.tcp.conn-10 sndAck:vector ETV
attr interpolationmode sample-hold
attr recordingmode vector
vector 190 AirportNetwork.ankAreaAgent.tcp.conn-1 rcvSeq:vector ETV
attr interpolationmode sample-hold
attr recordingmode vector
vector 191 AirportNetwork.ankAreaAgent.tcp.conn-1 rcvAck:vector ETV
attr interpolationmode sample-hold
attr recordingmode vector
vector 192 AirportNetwork.ankAreaAgent.tcp.conn-1 tcpRcvPayloadBytes:vector ETV
attr interpolationmode sample-hold
attr recordingmode vector
vector 193 AirportNetwork.ankAreaAgent.tcp.conn-11 rcvAdv:vector ETV
attr interpolationmode sample-hold
attr recordingmode vector
vector 194 AirportNetwork.ankAreaAgent.tcp.conn-11 sndWnd:vector ETV
attr interpolationmode sample-hold
attr recordingmode vector
vector 195 AirportNetwork.ankAreaAgent.tcp.conn-11 tcpRcvQueueBytes:vector ETV
attr interpolationmode sample-hold
attr recordingmode vector
vector 196 AirportNetwork.ankAreaAgent.tcp.conn-11 rcvWnd:vector ETV
attr interpolationmode sample-hold
attr recordingmode vector
vector 197 AirportNetwork.ankAreaAgent.tcp.conn-11 sndAck:vector ETV
attr interpolationmode sample-hold
attr recordingmode vector
vector 198 AirportNetwork.istAreaAgent.ethernet encapPk:vector(packetBytes) ETV
attr interpolationmode none
attr recordingmode vector(packetBytes)
attr source encapPk
attr title "packets encapsulated, packetBytes"
vector 199 AirportNetwork.ankAreaAgent.ethernet encapPk:vector(packetBytes) ETV
attr interpolationmode none
attr recordingmode vector(packetBytes)
attr source encapPk
attr title "packets encapsulated, packetBytes"
vector 200 AirportNetwork.istAreaAgent.eth[0].queue incomingPacketLengths:vector ETV
attr interpolationmode none
attr recordingmode vector
attr source packetLength(packetPushStarted)
attr title "incoming packet lengths"
attr unit b
vector 201 AirportNetwork.istAreaAgent.eth[0].queue queueingTime:vector ETV
attr interpolationmode none
attr recordingmode vector
attr source queueingTime(packetPulled)
attr title "queueing times"
attr unit s
vector 202 AirportNetwork.istAreaAgent.eth[0].queue outgoingPacketLengths:vector ETV
attr interpolationmode none
attr recordingmode vector
attr source packetLength(packetPulled)
attr title "outgoing packet lengths"
attr unit b
vector 203 AirportNetwork.istAreaAgent.eth[0].mac packetReceivedFromUpper:vector(packetBytes) ETV
attr interpolationmode none
attr recordingmode vector(packetBytes)
attr source packetReceivedFromUpper
attr title "packet bytes from higher layer, packetBytes"
vector 204 AirportNetwork.istAreaAgent.eth[0].queue queueLength:vector ETV
attr autoWarmupFilter false
attr interpolationmode sample-hold
attr recordingmode vector
attr source "warmup(atomic(constant0(packetPushEnded) + count(packetPushStarted) - count(packetPulled) - count(packetRemoved) - count(packetDropped)))"
attr title "queue length"
attr unit pk
vector 205 AirportNetwork.istAreaAgent.eth[0].queue queueBitLength:vector ETV
attr autoWarmupFilter false
attr interpolationmode sample-hold
attr recordingmode vector
attr source "warmup(atomic(constant0(packetPushEnded) + sum(packetLength(packetPushStarted)) - sum(packetLength(packetPulled)) - sum(packetLength(packetRemoved)) - sum(packetLength(packetDropped))))"
attr title "queue bit length"
attr unit b
vector 206 AirportNetwork.ankAreaAgent.eth[0].queue incomingPacketLengths:vector ETV
attr interpolationmode none
attr recordingmode vector
attr source packetLength(packetPushStarted)
attr title "incoming packet lengths"
attr unit b
vector 207 AirportNetwork.ankAreaAgent.eth[0].queue queueingTime:vector ETV
attr interpolationmode none
attr recordingmode vector
attr source queueingTime(packetPulled)
attr title "queueing times"
attr unit s
vector 208 AirportNetwork.ankAreaAgent.eth[0].queue outgoingPacketLengths:vector ETV
attr interpolationmode none
attr recordingmode vector
attr source packetLength(packetPulled)
attr title "outgoing packet lengths"
attr unit b
vector 209 AirportNetwork.ankAreaAgent.eth[0].mac packetReceivedFromUpper:vector(packetBytes) ETV
attr interpolationmode none
attr recordingmode vector(packetBytes)
attr source packetReceivedFromUpper
attr title "packet bytes from higher layer, packetBytes"
vector 210 AirportNetwork.ankAreaAgent.eth[0].queue queueLength:vector ETV
attr autoWarmupFilter false
attr interpolationmode sample-hold
attr recordingmode vector
attr source "warmup(atomic(constant0(packetPushEnded) + count(packetPushStarted) - count(packetPulled) - count(packetRemoved) - count(packetDropped)))"
attr title "queue length"
attr unit pk
vector 211 AirportNetwork.ankAreaAgent.eth[0].queue queueBitLength:vector ETV
attr autoWarmupFilter false
attr interpolationmode sample-hold
attr recordingmode vector
attr source "warmup(atomic(constant0(packetPushEnded) + sum(packetLength(packetPushStarted)) - sum(packetLength(packetPulled)) - sum(packetLength(packetRemoved)) - sum(packetLength(packetDropped))))"
attr title "queue bit length"
attr unit b
vector 212 AirportNetwork.istAreaAgent.eth[0].mac txPk:vector(packetBytes) ETV
attr interpolationmode none
attr recordingmode vector(packetBytes)
attr source packetSentToLower
attr title "packets transmitted, packetBytes"
vector 213 AirportNetwork.ankAreaAgent.eth[0].mac txPk:vector(packetBytes) ETV
attr interpolationmode none
attr recordingmode vector(packetBytes)
attr source packetSentToLower
attr title "packets transmitted, packetBytes"
vector 214 AirportNetwork.istAreaRouter.eth[1].mac rxPkOk:vector(packetBytes) ETV
attr interpolationmode none
attr recordingmode vector(packetBytes)
attr source rxPkOk
attr title "packets received OK, packetBytes"
vector 215 AirportNetwork.istAreaRouter.eth[1].mac passedUpPk:vector(packetBytes) ETV
attr interpolationmode none
attr recordingmode vector(packetBytes)
attr source packetSentToUpper
attr title "packets passed to higher layer, packetBytes"
vector 216 AirportNetwork.ankAreaRouter.eth[1].mac rxPkOk:vector(packetBytes) ETV
attr interpolationmode none
attr recordingmode vector(packetBytes)
attr source rxPkOk
attr title "packets received OK, packetBytes"
vector 217 AirportNetwork.ankAreaRouter.eth[1].mac passedUpPk:vector(packetBytes) ETV
attr interpolationmode none
attr recordingmode vector(packetBytes)
attr source packetSentToUpper
attr title "packets passed to higher layer, packetBytes"
vector 218 AirportNetwork.istAreaRouter.eth[2].queue incomingPacketLengths:vector ETV
attr interpolationmode none
attr recordingmode vector
attr source packetLength(packetPushStarted)
attr title "incoming packet lengths"
attr unit b
vector 219 AirportNetwork.istAreaRouter.eth[2].queue queueingTime:vector ETV
attr interpolationmode none
attr recordingmode vector
attr source queueingTime(packetPulled)
attr title "queueing times"
attr unit s
vector 220 AirportNetwork.istAreaRouter.eth[2].queue outgoingPacketLengths:vector ETV
attr interpolationmode none
attr recordingmode vector
attr source packetLength(packetPulled)
attr title "outgoing packet lengths"
attr unit b
vector 221 AirportNetwork.istAreaRouter.eth[2].mac packetReceivedFromUpper:vector(packetBytes) ETV
attr interpolationmode none
attr recordingmode vector(packetBytes)
attr source packetReceivedFromUpper
attr title "packet bytes from higher layer, packetBytes"
vector 222 AirportNetwork.istAreaRouter.eth[2].queue queueLength:vector ETV
attr autoWarmupFilter false
attr interpolationmode sample-hold
attr recordingmode vector
attr source "warmup(atomic(constant0(packetPushEnded) + count(packetPushStarted) - count(packetPulled) - count(packetRemoved) - count(packetDropped)))"
attr title "queue length"
attr unit pk
vector 223 AirportNetwork.istAreaRouter.eth[2].queue queueBitLength:vector ETV
attr autoWarmupFilter false
attr interpolationmode sample-hold
attr recordingmode vector
attr source "warmup(atomic(constant0(packetPushEnded) + sum(packetLength(packetPushStarted)) - sum(packetLength(packetPulled)) - sum(packetLength(packetRemoved)) - sum(packetLength(packetDropped))))"
attr title "queue bit length"
attr unit b
vector 224 AirportNetwork.ankAreaRouter.eth[2].queue incomingPacketLengths:vector ETV
attr interpolationmode none
attr recordingmode vector
attr source packetLength(packetPushStarted)
attr title "incoming packet lengths"
attr unit b
vector 225 AirportNetwork.ankAreaRouter.eth[2].queue queueingTime:vector ETV
attr interpolationmode none
attr recordingmode vector
attr source queueingTime(packetPulled)
attr title "queueing times"
attr unit s
vector 226 AirportNetwork.ankAreaRouter.eth[2].queue outgoingPacketLengths:vector ETV
attr interpolationmode none
attr recordingmode vector
attr source packetLength(packetPulled)
attr title "outgoing packet lengths"
attr unit b
vector 227 AirportNetwork.ankAreaRouter.eth[2].mac packetReceivedFromUpper:vector(packetBytes) ETV
attr interpolationmode none
attr recordingmode vector(packetBytes)
attr source packetReceivedFromUpper
attr title "packet bytes from higher layer, packetBytes"
vector 228 AirportNetwork.ankAreaRouter.eth[2].queue queueLength:vector ETV
attr autoWarmupFilter false
attr interpolationmode sample-hold
attr recordingmode vector
attr source "warmup(atomic(constant0(packetPushEnded) + count(packetPushStarted) - count(packetPulled) - count(packetRemoved) - count(packetDropped)))"
attr title "queue length"
attr unit pk
vector 229 AirportNetwork.ankAreaRouter.eth[2].queue queueBitLength:vector ETV
attr autoWarmupFilter false
attr interpolationmode sample-hold
attr recordingmode vector
attr source "warmup(atomic(constant0(packetPushEnded) + sum(packetLength(packetPushStarted)) - sum(packetLength(packetPulled)) - sum(packetLength(packetRemoved)) - sum(packetLength(packetDropped))))"
attr title "queue bit length"
attr unit b
vector 230 AirportNetwork.istAreaRouter.eth[2].mac txPk:vector(packetBytes) ETV
attr interpolationmode none
attr recordingmode vector(packetBytes)
attr source packetSentToLower
attr title "packets transmitted, packetBytes"
vector 231 AirportNetwork.ankAreaRouter.eth[2].mac txPk:vector(packetBytes) ETV
attr interpolationmode none
attr recordingmode vector(packetBytes)
attr source packetSentToLower
attr title "packets transmitted, packetBytes"
vector 232 AirportNetwork.atmSawRouter.eth[0].mac rxPkOk:vector(packetBytes) ETV
attr interpolationmode none
attr recordingmode vector(packetBytes)
attr source rxPkOk
attr title "packets received OK, packetBytes"
vector 233 AirportNetwork.atmSawRouter.eth[0].mac passedUpPk:vector(packetBytes) ETV
attr interpolationmode none
attr recordingmode vector(packetBytes)
attr source packetSentToUpper
attr title "packets passed to higher layer, packetBytes"
vector 234 AirportNetwork.atmEsbRouter.eth[0].mac rxPkOk:vector(packetBytes) ETV
attr interpolationmode none
attr recordingmode vector(packetBytes)
attr source rxPkOk
attr title "packets received OK, packetBytes"
vector 235 AirportNetwork.atmEsbRouter.eth[0].mac passedUpPk:vector(packetBytes) ETV
attr interpolationmode none
attr recordingmode vector(packetBytes)
attr source packetSentToUpper
attr title "packets passed to higher layer, packetBytes"
vector 236 AirportNetwork.atmSawRouter.eth[1].queue incomingPacketLengths:vector ETV
attr interpolationmode none
attr recordingmode vector
attr source packetLength(packetPushStarted)
attr title "incoming packet lengths"
attr unit b
vector 237 AirportNetwork.atmSawRouter.eth[1].queue queueingTime:vector ETV
attr interpolationmode none
attr recordingmode vector
attr source queueingTime(packetPulled)
attr title "queueing times"
attr unit s
vector 238 AirportNetwork.atmSawRouter.eth[1].queue outgoingPacketLengths:vector ETV
attr interpolationmode none
attr recordingmode vector
attr source packetLength(packetPulled)
attr title "outgoing packet lengths"
attr unit b
vector 239 AirportNetwork.atmSawRouter.eth[1].mac packetReceivedFromUpper:vector(packetBytes) ETV
attr interpolationmode none
attr recordingmode vector(packetBytes)
attr source packetReceivedFromUpper
attr title "packet bytes from higher layer, packetBytes"
vector 240 AirportNetwork.atmSawRouter.eth[1].queue queueLength:vector ETV
attr autoWarmupFilter false
attr interpolationmode sample-hold
attr recordingmode vector
attr source "warmup(atomic(constant0(packetPushEnded) + count(packetPushStarted) - count(packetPulled) - count(packetRemoved) - count(packetDropped)))"
attr title "queue length"
attr unit pk
vector 241 AirportNetwork.atmSawRouter.eth[1].queue queueBitLength:vector ETV
attr autoWarmupFilter false
attr interpolationmode sample-hold
attr recordingmode vector
attr source "warmup(atomic(constant0(packetPushEnded) + sum(packetLength(packetPushStarted)) - sum(packetLength(packetPulled)) - sum(packetLength(packetRemoved)) - sum(packetLength(packetDropped))))"
attr title "queue bit length"
attr unit b
vector 242 AirportNetwork.atmEsbRouter.eth[1].queue incomingPacketLengths:vector ETV
attr interpolationmode none
attr recordingmode vector
attr source packetLength(packetPushStarted)
attr title "incoming packet lengths"
attr unit b
vector 243 AirportNetwork.atmEsbRouter.eth[1].queue queueingTime:vector ETV
attr interpolationmode none
attr recordingmode vector
attr source queueingTime(packetPulled)
attr title "queueing times"
attr unit s
vector 244 AirportNetwork.atmEsbRouter.eth[1].queue outgoingPacketLengths:vector ETV
attr interpolationmode none
attr recordingmode vector
attr source packetLength(packetPulled)
attr title "outgoing packet lengths"
attr unit b
vector 245 AirportNetwork.atmEsbRouter.eth[1].mac packetReceivedFromUpper:vector(packetBytes) ETV
attr interpolationmode none
attr recordingmode vector(packetBytes)
attr source packetReceivedFromUpper
attr title "packet bytes from higher layer, packetBytes"
vector 246 AirportNetwork.atmEsbRouter.eth[1].queue queueLength:vector ETV
attr autoWarmupFilter false
attr interpolationmode sample-hold
attr recordingmode vector
attr source "warmup(atomic(constant0(packetPushEnded) + count(packetPushStarted) - count(packetPulled) - count(packetRemoved) - count(packetDropped)))"
attr title "queue length"
attr unit pk
vector 247 AirportNetwork.atmEsbRouter.eth[1].queue queueBitLength:vector ETV
attr autoWarmupFilter false
attr interpolationmode sample-hold
attr recordingmode vector
attr source "warmup(atomic(constant0(packetPushEnded) + sum(packetLength(packetPushStarted)) - sum(packetLength(packetPulled)) - sum(packetLength(packetRemoved)) - sum(packetLength(packetDropped))))"
attr title "queue bit length"
attr unit b
vector 248 AirportNetwork.atmSawRouter.eth[1].mac txPk:vector(packetBytes) ETV
attr interpolationmode none
attr recordingmode vector(packetBytes)
attr source packetSentToLower
attr title "packets transmitted, packetBytes"
vector 249 AirportNetwork.atmEsbRouter.eth[1].mac txPk:vector(packetBytes) ETV
attr interpolationmode none
attr recordingmode vector(packetBytes)
attr source packetSentToLower
attr title "packets transmitted, packetBytes"
vector 250 AirportNetwork.atmSawSwitch.eth[0].mac rxPkOk:vector(packetBytes) ETV
attr interpolationmode none
attr recordingmode vector(packetBytes)
attr source rxPkOk
attr title "packets received OK, packetBytes"
vector 251 AirportNetwork.atmSawSwitch.eth[0].mac passedUpPk:vector(packetBytes) ETV
attr interpolationmode none
attr recordingmode vector(packetBytes)
attr source packetSentToUpper
attr title "packets passed to higher layer, packetBytes"
vector 252 AirportNetwork.atmEsbSwitch.eth[0].mac rxPkOk:vector(packetBytes) ETV
attr interpolationmode none
attr recordingmode vector(packetBytes)
attr source rxPkOk
attr title "packets received OK, packetBytes"
vector 253 AirportNetwork.atmEsbSwitch.eth[0].mac passedUpPk:vector(packetBytes) ETV
attr interpolationmode none
attr recordingmode vector(packetBytes)
attr source packetSentToUpper
attr title "packets passed to higher layer, packetBytes"
vector 254 AirportNetwork.atmSawSwitch.eth[3].queue incomingPacketLengths:vector ETV
attr interpolationmode none
attr recordingmode vector
attr source packetLength(packetPushStarted)
attr title "incoming packet lengths"
attr unit b
vector 255 AirportNetwork.atmSawSwitch.eth[3].queue queueingTime:vector ETV
attr interpolationmode none
attr recordingmode vector
attr source queueingTime(packetPulled)
attr title "queueing times"
attr unit s
vector 256 AirportNetwork.atmSawSwitch.eth[3].queue outgoingPacketLengths:vector ETV
attr interpolationmode none
attr recordingmode vector
attr source packetLength(packetPulled)
attr title "outgoing packet lengths"
attr unit b
vector 257 AirportNetwork.atmSawSwitch.eth[3].mac packetReceivedFromUpper:vector(packetBytes) ETV
attr interpolationmode none
attr recordingmode vector(packetBytes)
attr source packetReceivedFromUpper
attr title "packet bytes from higher layer, packetBytes"
vector 258 AirportNetwork.atmSawSwitch.eth[3].queue queueLength:vector ETV
attr autoWarmupFilter false
attr interpolationmode sample-hold
attr recordingmode vector
attr source "warmup(atomic(constant0(packetPushEnded) + count(packetPushStarted) - count(packetPulled) - count(packetRemoved) - count(packetDropped)))"
attr title "queue length"
attr unit pk
vector 259 AirportNetwork.atmSawSwitch.eth[3].queue queueBitLength:vector ETV
attr autoWarmupFilter false
attr interpolationmode sample-hold
attr recordingmode vector
attr source "warmup(atomic(constant0(packetPushEnded) + sum(packetLength(packetPushStarted)) - sum(packetLength(packetPulled)) - sum(packetLength(packetRemoved)) - sum(packetLength(packetDropped))))"
attr title "queue bit length"
attr unit b
vector 260 AirportNetwork.atmEsbSwitch.eth[1].queue incomingPacketLengths:vector ETV
attr interpolationmode none
attr recordingmode vector
attr source packetLength(packetPushStarted)
attr title "incoming packet lengths"
attr unit b
vector 261 AirportNetwork.atmEsbSwitch.eth[1].queue queueingTime:vector ETV
attr interpolationmode none
attr recordingmode vector
attr source queueingTime(packetPulled)
attr title "queueing times"
attr unit s
vector 262 AirportNetwork.atmEsbSwitch.eth[1].queue outgoingPacketLengths:vector ETV
attr interpolationmode none
attr recordingmode vector
attr source packetLength(packetPulled)
attr title "outgoing packet lengths"
attr unit b
vector 263 AirportNetwork.atmEsbSwitch.eth[1].mac packetReceivedFromUpper:vector(packetBytes) ETV
attr interpolationmode none
attr recordingmode vector(packetBytes)
attr source packetReceivedFromUpper
attr title "packet bytes from higher layer, packetBytes"
vector 264 AirportNetwork.atmEsbSwitch.eth[1].queue queueLength:vector ETV
attr autoWarmupFilter false
attr interpolationmode sample-hold
attr recordingmode vector
attr source "warmup(atomic(constant0(packetPushEnded) + count(packetPushStarted) - count(packetPulled) - count(packetRemoved) - count(packetDropped)))"
attr title "queue length"
attr unit pk
vector 265 AirportNetwork.atmEsbSwitch.eth[1].queue queueBitLength:vector ETV
attr autoWarmupFilter false
attr interpolationmode sample-hold
attr recordingmode vector
attr source "warmup(atomic(constant0(packetPushEnded) + sum(packetLength(packetPushStarted)) - sum(packetLength(packetPulled)) - sum(packetLength(packetRemoved)) - sum(packetLength(packetDropped))))"
attr title "queue bit length"
attr unit b
vector 266 AirportNetwork.atmSawSwitch.eth[1].mac txPk:vector(packetBytes) ETV
attr interpolationmode none
attr recordingmode vector(packetBytes)
attr source packetSentToLower
attr title "packets transmitted, packetBytes"
vector 267 AirportNetwork.atmSawSwitch.eth[2].mac txPk:vector(packetBytes) ETV
attr interpolationmode none
attr recordingmode vector(packetBytes)
attr source packetSentToLower
attr title "packets transmitted, packetBytes"
vector 268 AirportNetwork.atmEsbSwitch.eth[2].mac txPk:vector(packetBytes) ETV
attr interpolationmode none
attr recordingmode vector(packetBytes)
attr source packetSentToLower
attr title "packets transmitted, packetBytes"
vector 269 AirportNetwork.atmEsbSwitch.eth[3].mac txPk:vector(packetBytes) ETV
attr interpolationmode none
attr recordingmode vector(packetBytes)
attr source packetSentToLower
attr title "packets transmitted, packetBytes"
vector 270 AirportNetwork.sawDelivery.eth[0].mac packetDropNotAddressedToUs:vector(packetBytes) ETV
attr interpolationmode none
attr recordingmode vector(packetBytes)
attr source packetDropReasonIsNotAddressedToUs(packetDropped)
attr title "packet drop: not addressed to us, packetBytes"
vector 271 AirportNetwork.sawGround.eth[0].mac packetDropNotAddressedToUs:vector(packetBytes) ETV
attr interpolationmode none
attr recordingmode vector(packetBytes)
attr source packetDropReasonIsNotAddressedToUs(packetDropped)
attr title "packet drop: not addressed to us, packetBytes"
vector 272 AirportNetwork.esbDelivery.eth[0].mac packetDropNotAddressedToUs:vector(packetBytes) ETV
attr interpolationmode none
attr recordingmode vector(packetBytes)
attr source packetDropReasonIsNotAddressedToUs(packetDropped)
attr title "packet drop: not addressed to us, packetBytes"
vector 273 AirportNetwork.esbGround.eth[0].mac packetDropNotAddressedToUs:vector(packetBytes) ETV
attr interpolationmode none
attr recordingmode vector(packetBytes)
attr source packetDropReasonIsNotAddressedToUs(packetDropped)
attr title "packet drop: not addressed to us, packetBytes"
vector 274 AirportNetwork.atmSawSwitch.eth[3].mac txPk:vector(packetBytes) ETV
attr interpolationmode none
attr recordingmode vector(packetBytes)
attr source packetSentToLower
attr title "packets transmitted, packetBytes"
vector 275 AirportNetwork.atmEsbSwitch.eth[1].mac txPk:vector(packetBytes) ETV
attr interpolationmode none
attr recordingmode vector(packetBytes)
attr source packetSentToLower
attr title "packets transmitted, packetBytes"
vector 276 AirportNetwork.sawTower.eth[0].mac rxPkOk:vector(packetBytes) ETV
attr interpolationmode none
attr recordingmode vector(packetBytes)
attr source rxPkOk
attr title "packets received OK, packetBytes"
vector 277 AirportNetwork.sawTower.eth[0].mac passedUpPk:vector(packetBytes) ETV
attr interpolationmode none
attr recordingmode vector(packetBytes)
attr source packetSentToUpper
attr title "packets passed to higher layer, packetBytes"
vector 278 AirportNetwork.esbTower.eth[0].mac rxPkOk:vector(packetBytes) ETV
attr interpolationmode none
attr recordingmode vector(packetBytes)
attr source rxPkOk
attr title "packets received OK, packetBytes"
vector 279 AirportNetwork.esbTower.eth[0].mac passedUpPk:vector(packetBytes) ETV
attr interpolationmode none
attr recordingmode vector(packetBytes)
attr source packetSentToUpper
attr title "packets passed to higher layer, packetBytes"
vector 280 AirportNetwork.sawTower.ethernet decapPk:vector(packetBytes) ETV
attr interpolationmode none
attr recordingmode vector(packetBytes)
attr source decapPk
attr title "packets decapsulated, packetBytes"
vector 281 AirportNetwork.esbTower.ethernet decapPk:vector(packetBytes) ETV
attr interpolationmode none
attr recordingmode vector(packetBytes)
attr source decapPk
attr title "packets decapsulated, packetBytes"
vector 282 AirportNetwork.sawTower.tcp.conn-8 rcvSeq:vector ETV
attr interpolationmode sample-hold
attr recordingmode vector
vector 283 AirportNetwork.sawTower.tcp.conn-8 rcvAck:vector ETV
attr interpolationmode sample-hold
attr recordingmode vector
vector 284 AirportNetwork.sawTower.tcp.conn-8 tcpRcvPayloadBytes:vector ETV
attr interpolationmode sample-hold
attr recordingmode vector
vector 285 AirportNetwork.sawTower.tcp.conn-8 sndWnd:vector ETV
attr interpolationmode sample-hold
attr recordingmode vector
vector 286 AirportNetwork.esbTower.tcp.conn-9 rcvSeq:vector ETV
attr interpolationmode sample-hold
attr recordingmode vector
vector 287 AirportNetwork.esbTower.tcp.conn-9 rcvAck:vector ETV
attr interpolationmode sample-hold
attr recordingmode vector
vector 288 AirportNetwork.esbTower.tcp.conn-9 tcpRcvPayloadBytes:vector ETV
attr interpolationmode sample-hold
attr recordingmode vector
vector 289 AirportNetwork.esbTower.tcp.conn-9 sndWnd:vector ETV
attr interpolationmode sample-hold
attr recordingmode vector
vector 290 AirportNetwork.sawTower.app[0] packetSent:vector(packetBytes) ETV
attr interpolationmode none
attr recordingmode vector(packetBytes)
attr source packetSent
attr title "packets sent, packetBytes"
vector 291 AirportNetwork.esbTower.app[0] packetSent:vector(packetBytes) ETV
attr interpolationmode none
attr recordingmode vector(packetBytes)
attr source packetSent
attr title "packets sent, packetBytes"
vector 292 AirportNetwork.sawTower.tcp.conn-8 sndNxt:vector ETV
attr interpolationmode sample-hold
attr recordingmode vector
vector 293 AirportNetwork.sawTower.tcp.conn-8 unacked:vector ETV
attr interpolationmode sample-hold
attr recordingmode vector
vector 294 AirportNetwork.esbTower.tcp.conn-9 sndNxt:vector ETV
attr interpolationmode sample-hold
attr recordingmode vector
vector 295 AirportNetwork.esbTower.tcp.conn-9 unacked:vector ETV
attr interpolationmode sample-hold
attr recordingmode vector
vector 296 AirportNetwork.istAreaAgent.tcp.conn-10 rcvSeq:vector ETV
attr interpolationmode sample-hold
attr recordingmode vector
vector 297 AirportNetwork.istAreaAgent.tcp.conn-10 rcvAck:vector ETV
attr interpolationmode sample-hold
attr recordingmode vector
vector 298 AirportNetwork.istAreaAgent.tcp.conn-10 tcpRcvPayloadBytes:vector ETV
attr interpolationmode sample-hold
attr recordingmode vector
vector 299 AirportNetwork.istAreaAgent.tcp.conn-10 unacked:vector ETV
attr interpolationmode sample-hold
attr recordingmode vector
vector 300 AirportNetwork.ankAreaAgent.tcp.conn-11 rcvSeq:vector ETV
attr interpolationmode sample-hold
attr recordingmode vector
vector 301 AirportNetwork.ankAreaAgent.tcp.conn-11 rcvAck:vector ETV
attr interpolationmode sample-hold
attr recordingmode vector
vector 302 AirportNetwork.ankAreaAgent.tcp.conn-11 tcpRcvPayloadBytes:vector ETV
attr interpolationmode sample-hold
attr recordingmode vector
vector 303 AirportNetwork.ankAreaAgent.tcp.conn-11 unacked:vector ETV
attr interpolationmode sample-hold
attr recordingmode vector
vector 304 AirportNetwork.istAreaAgent.tcp.conn-10 dupAcks:vector ETV
attr interpolationmode sample-hold
attr recordingmode vector
vector 305 AirportNetwork.ankAreaAgent.tcp.conn-11 dupAcks:vector ETV
attr interpolationmode sample-hold
attr recordingmode vector
vector 306 AirportNetwork.istAreaAgent.app[0] packetReceived:vector(packetBytes) ETV
attr interpolationmode none
attr recordingmode vector(packetBytes)
attr source packetReceived
attr title "packets received, packetBytes"
vector 307 AirportNetwork.istAreaAgent.app[0] endToEndDelay:vector ETV
attr interpolationmode none
attr recordingmode vector
attr source dataAge(packetReceived)
attr title "end-to-end delay"
attr unit s
vector 308 AirportNetwork.istAreaAgent.app[0] packetSent:vector(packetBytes) ETV
attr interpolationmode none
attr recordingmode vector(packetBytes)
attr source packetSent
attr title "packets sent, packetBytes"
vector 309 AirportNetwork.ankAreaAgent.app[0] packetReceived:vector(packetBytes) ETV
[...]
151	194016 83 62 452 0.00006391 0.00067699 4 0 0 0 0
152	194099 88 67 457 0.00006967 0.00068275 4 64 158 350 37252
153	194187 88 68 458 0.00006967 0.00068275 4 64 158 350 37252
154	194275 88 69 459 0.00007017 0.00068325 4 64 158 350 37252
155	194363 88 69 459 0.00007017 0.00068325 4 64 158 350 37252
156	194451 88 70 460 0.00007017 0.00068325 4 64 158 350 37252
157	194539 88 70 460 0.00007017 0.00068325 4 64 158 350 37252
158	194627 155 71 461 0.00007017 0.00068325 7 46 140 510 49780
159	194782 155 72 462 0.00007017 0.00068325 7 46 140 510 49780
160	194937 155 75 465 0.00007017 0.00068325 7 40 140 488 47872
161	195092 155 76 466 0.00007017 0.00068325 7 40 140 488 47872
162	195247 92 77 467 0.00007017 0.00068325 4 464 1264 2688 2274304
163	195339 83 77 467 0.00007017 0.00068325 4 0 0 0 0
164	195422 92 77 467 0.00007017 0.00068325 4 464 1264 2688 2274304
165	195514 88 77 467 0.00007017 0.00068325 4 58 158 336 35536
166	195602 83 77 467 0.00007017 0.00068325 4 0 0 0 0
167	195685 83 77 467 0.00007017 0.00068325 4 0 0 0 0
168	195768 92 78 468 0.00007017 0.00068325 4 464 1264 2688 2274304
169	195860 83 78 468 0.00007017 0.00068325 4 0 0 0 0
170	195943 92 78 468 0.00007017 0.00068325 4 464 1264 2688 2274304
171	196035 88 78 468 0.00007017 0.00068325 4 58 158 336 35536
172	196123 83 78 468 0.00007017 0.00068325 4 0 0 0 0
173	196206 83 78 468 0.00007017 0.00068325 4 0 0 0 0
174	196289 88 81 471 0.00007593 0.00068901 4 64 158 350 37252
175	196377 88 82 472 0.00007593 0.00068901 4 64 158 350 37252
176	196465 88 83 473 0.00007643 0.00068951 4 64 158 350 37252
177	196553 88 83 473 0.00007643 0.00068951 4 64 158 350 37252
178	196641 88 84 474 0.00007643 0.00068951 4 64 158 350 37252
179	196729 88 84 474 0.00007643 0.00068951 4 64 158 350 37252
180	196817 88 85 475 0.00007643 0.00068951 4 46 140 278 25948
181	196905 88 86 476 0.00007643 0.00068951 4 46 140 278 25948
182	196993 20 89 89 0.00007643 0.00007643 1 0 0 0 0
183	197013 20 89 89 0.00007643 0.00007643 1 0 0 0 0
184	197033 20 89 89 0.00007643 0.00007643 1 0 0 0 0
185	197053 94 89 299 0.00007643 0.00039425 4 7505 7605 30220 228322100
186	197147 71 89 479 0.00007643 0.00068951 3 7504 7504 22512 168930048
187	197218 83 89 299 0.00007643 0.00039425 4 0 0 0 0
188	197301 71 89 299 0.00007643 0.00039425 3 7504 7504 22512 168930048
189	197372 66 89 299 0.00007643 0.00039425 3 1 101 203 20403
190	197438 20 90 90 0.00007643 0.00007643 1 0 0 0 0
191	197458 20 90 90 0.00007643 0.00007643 1 0 0 0 0
192	197478 20 90 90 0.00007643 0.00007643 1 0 0 0 0
193	197498 94 90 301 0.00007643 0.00039425 4 7505 7605 30220 228322100
194	197592 71 90 480 0.00007643 0.00068951 3 7504 7504 22512 168930048
195	197663 83 90 301 0.00007643 0.00039425 4 0 0 0 0
196	197746 71 90 301 0.00007643 0.00039425 3 7504 7504 22512 168930048
197	197817 66 90 301 0.00007643 0.00039425 3 1 101 203 20403
198	197883 66 93 307 0.00007643 0.00039425 3 40 140 224 23136
199	197949 66 94 308 0.00007643 0.00039425 3 40 140 224 23136
200	198015 69 95 309 0.00007643 0.00039425 3 464 1264 2224 2059008
201	198084 69 95 325 0.00007643 0.00040097 3 0 6.72e-06 6.72e-06 4.51584e-11
202	198153 69 95 325 0.00007643 0.00040097 3 464 1264 2224 2059008
203	198222 66 95 325 0.00007643 0.00040097 3 58 158 278 32172
204	198288 83 95 325 0.00007643 0.00040097 4 0 1 1 1
205	198371 86 95 325 0.00007643 0.00040097 4 0 1264 1264 1597696
206	198457 69 96 310 0.00007643 0.00039425 3 464 1264 2224 2059008
207	198526 69 96 326 0.00007643 0.00040097 3 0 6.72e-06 6.72e-06 4.51584e-11
208	198595 69 96 326 0.00007643 0.00040097 3 464 1264 2224 2059008
209	198664 66 96 326 0.00007643 0.00040097 3 58 158 278 32172
210	198730 83 96 326 0.00007643 0.00040097 4 0 1 1 1
211	198813 86 96 326 0.00007643 0.00040097 4 0 1264 1264 1597696
212	198899 66 99 355 0.00008219 0.00041425 3 64 158 286 33156
213	198965 67 100 356 0.00008219 0.00041425 3 64 158 286 33156
214	199032 67 101 357 0.00008269 0.00041475 3 64 158 286 33156
215	199099 67 101 357 0.00008269 0.00041475 3 64 158 286 33156
216	199166 67 102 358 0.00008269 0.00041475 3 64 158 286 33156
217	199233 67 102 358 0.00008269 0.00041475 3 64 158 286 33156
218	199300 70 109 365 0.00008269 0.00041475 3 464 1264 2224 2059008
219	199370 63 109 365 0.00008269 0.00041475 3 0 0 0 0
220	199433 70 109 365 0.00008269 0.00041475 3 464 1264 2224 2059008
221	199503 67 109 365 0.00008269 0.00041475 3 58 158 278 32172
222	199570 63 109 365 0.00008269 0.00041475 3 0 0 0 0
223	199633 63 109 365 0.00008269 0.00041475 3 0 0 0 0
224	199696 70 110 366 0.00008269 0.00041475 3 464 1264 2224 2059008
225	199766 63 110 366 0.00008269 0.00041475 3 0 0 0 0
226	199829 70 110 366 0.00008269 0.00041475 3 464 1264 2224 2059008
227	199899 67 110 366 0.00008269 0.00041475 3 58 158 278 32172
228	199966 63 110 366 0.00008269 0.00041475 3 0 0 0 0
229	200029 63 110 366 0.00008269 0.00041475 3 0 0 0 0
230	200092 67 113 369 0.00008845 0.00042803 3 64 158 286 33156
231	200159 67 114 370 0.00008845 0.00042803 3 64 158 286 33156
232	200226 67 115 371 0.00008895 0.00042853 3 64 158 286 33156
233	200293 67 115 371 0.00008895 0.00042853 3 64 158 286 33156
234	200360 67 116 372 0.00008895 0.00042853 3 64 158 286 33156
235	200427 67 116 372 0.00008895 0.00042853 3 64 158 286 33156
236	200494 70 123 379 0.00008895 0.00042853 3 464 1264 2224 2059008
237	200564 63 123 379 0.00008895 0.00042853 3 0 0 0 0
238	200627 70 123 379 0.00008895 0.00042853 3 464 1264 2224 2059008
239	200697 67 123 379 0.00008895 0.00042853 3 58 158 278 32172
240	200764 63 123 379 0.00008895 0.00042853 3 0 0 0 0
241	200827 63 123 379 0.00008895 0.00042853 3 0 0 0 0
242	200890 70 124 380 0.00008895 0.00042853 3 464 1264 2224 2059008
243	200960 63 124 380 0.00008895 0.00042853 3 0 0 0 0
244	201023 70 124 380 0.00008895 0.00042853 3 464 1264 2224 2059008
245	201093 67 124 380 0.00008895 0.00042853 3 58 158 278 32172
246	201160 63 124 380 0.00008895 0.00042853 3 0 0 0 0
247	201223 63 124 380 0.00008895 0.00042853 3 0 0 0 0
248	201286 67 127 383 0.00009471 0.00044181 3 64 158 286 33156
249	201353 67 128 384 0.00009471 0.00044181 3 64 158 286 33156
250	201420 67 129 385 0.00009521 0.00044231 3 64 158 286 33156
251	201487 67 129 385 0.00009521 0.00044231 3 64 158 286 33156
252	201554 67 130 386 0.00009521 0.00044231 3 64 158 286 33156
253	201621 67 130 386 0.00009521 0.00044231 3 64 158 286 33156
254	201688 70 137 393 0.00009521 0.00044231 3 512 1264 2288 2121984
255	201758 71 137 407 0.00009521 0.00048023 3 0 3.792e-05 3.792e-05 1.4379264e-09
256	201829 70 137 407 0.00009521 0.00048023 3 512 1264 2288 2121984
257	201899 67 137 407 0.00009521 0.00048023 3 64 158 286 33156
258	201966 84 137 407 0.00009521 0.00048023 4 0 1 1 1
259	202050 87 137 407 0.00009521 0.00048023 4 0 1264 1264 1597696
260	202137 70 138 394 0.00009521 0.00044231 3 512 1264 2288 2121984
261	202207 71 138 408 0.00009521 0.00048023 3 0 3.792e-05 3.792e-05 1.4379264e-09
262	202278 70 138 408 0.00009521 0.00048023 3 512 1264 2288 2121984
263	202348 67 138 408 0.00009521 0.00048023 3 64 158 286 33156
264	202415 84 138 408 0.00009521 0.00048023 4 0 1 1 1
265	202499 87 138 408 0.00009521 0.00048023 4 0 1264 1264 1597696
266	202586 22 141 141 0.00011525 0.00011525 1 64 64 64 4096
267	202608 22 142 142 0.00011525 0.00011525 1 64 64 64 4096
268	202630 22 143 143 0.00011525 0.00011525 1 64 64 64 4096
269	202652 22 144 144 0.00011525 0.00011525 1 64 64 64 4096
270	202674 21 145 145 0.0001153 0.0001153 1 64 64 64 4096
271	202695 21 146 146 0.0001153 0.0001153 1 64 64 64 4096
272	202716 21 147 147 0.0001153 0.0001153 1 64 64 64 4096
273	202737 21 148 148 0.0001153 0.0001153 1 64 64 64 4096
274	202758 67 153 409 0.00015281 0.00061303 3 64 158 286 33156
275	202825 67 154 410 0.00015281 0.00061303 3 64 158 286 33156
276	202892 67 155 411 0.00015286 0.00061308 3 64 158 286 33156
277	202959 67 155 411 0.00015286 0.00061308 3 64 158 286 33156
278	203026 67 156 412 0.00015286 0.00061308 3 64 158 286 33156
279	203093 67 156 412 0.00015286 0.00061308 3 64 158 286 33156
280	203160 67 157 413 0.00015286 0.00061308 3 46 140 232 23832
281	203227 67 158 414 0.00015286 0.00061308 3 46 140 232 23832
282	203294 66 161 417 0.00015286 0.00061308 3 19 20 59 1161
283	203360 67 161 417 0.00015286 0.00061308 3 1 101 203 20403
284	203427 65 161 417 0.00015286 0.00061308 3 0 100 100 10000
285	203492 48 161 405 0.00015286 0.00047068 2 7504 7504 15008 112620032
286	203540 66 162 418 0.00015286 0.00061308 3 19 20 59 1161
287	203606 67 162 418 0.00015286 0.00061308 3 1 101 203 20403
288	203673 65 162 418 0.00015286 0.00061308 3 0 100 100 10000
289	203738 48 162 406 0.00015286 0.00047068 2 7504 7504 15008 112620032
290	203786 23 168 168 0.00015286 0.00015286 1 100 100 100 10000
291	203809 23 170 170 0.00015286 0.00015286 1 100 100 100 10000
292	203832 21 172 172 0.00015286 0.00015286 1 1 1 1 1
293	203853 44 172 405 0.00015286 0.00047068 2 0 100 100 10000
294	203897 21 174 174 0.00015286 0.00015286 1 1 1 1 1
295	203918 44 174 406 0.00015286 0.00047068 2 0 100 100 10000
296	203962 65 233 479 0.00022929 0.00068951 3 1 101 103 10203
297	204027 67 233 479 0.00022929 0.00068951 3 20 120 160 15200
298	204094 65 233 479 0.00022929 0.00068951 3 0 100 100 10000
299	204159 65 233 479 0.00022929 0.00068951 3 0 100 100 10000
300	204224 65 234 480 0.00022929 0.00068951 3 1 101 103 10203
301	204289 67 234 480 0.00022929 0.00068951 3 20 120 160 15200
302	204356 65 234 480 0.00022929 0.00068951 3 0 100 100 10000
303	204421 65 234 480 0.00022929 0.00068951 3 0 100 100 10000
304	204486 42 293 479 0.00039425 0.00068951 2 0 0 0 0
305	204528 42 294 480 0.00039425 0.00068951 2 0 0 0 0
306	204570 23 295 295 0.00039425 0.00039425 1 100 100 100 10000
307	204593 30 295 295 0.00039425 0.00039425 1 0.00024139 0.00024139 0.00024139 5.82691321e-08
308	204623 23 295 295 0.00039425 0.00039425 1 100 100 100 10000
309	204646 23 297 297 0.00039425 0.00039425 1 100 100 100 10000
310	204669 30 297 297 0.00039425 0.00039425 1 0.00024139 0.00024139 0.00024139 5.82691321e-08
311	204699 23 297 297 0.00039425 0.00039425 1 100 100 100 10000
312	204722 22 299 299 0.00039425 0.00039425 1 20 20 20 400
313	204744 22 301 301 0.00039425 0.00039425 1 20 20 20 400
314	204766 30 405 405 0.00047068 0.00047068 1 0.00031782 0.00031782 0.00031782 1.010095524e-07
315	204796 31 405 405 0.00047068 0.00047068 1 3.97275e-05 3.97275e-05 3.97275e-05 1.57827425625e-09
316	204827 32 405 405 0.00047068 0.00047068 1 0.6562897275 0.6562897275 0.6562897275 0.43071620642202
317	204859 32 405 405 0.00047068 0.00047068 1 2.6251986375 2.6251986375 2.6251986375 6.8916678863319
318	204891 24 405 405 0.00047068 0.00047068 1 1072 1072 1072 1149184
319	204915 30 405 405 0.00047068 0.00047068 1 4294967295 4294967295 4294967295 1.844674406512e+19
320	204945 42 405 417 0.00047068 0.00061308 2 0 0 0 0
321	204987 30 406 406 0.00047068 0.00047068 1 0.00031782 0.00031782 0.00031782 1.010095524e-07
322	205017 31 406 406 0.00047068 0.00047068 1 3.97275e-05 3.97275e-05 3.97275e-05 1.57827425625e-09
323	205048 32 406 406 0.00047068 0.00047068 1 0.6562897275 0.6562897275 0.6562897275 0.43071620642202
324	205080 32 406 406 0.00047068 0.00047068 1 2.6251986375 2.6251986375 2.6251986375 6.8916678863319
325	205112 24 406 406 0.00047068 0.00047068 1 1072 1072 1072 1149184
326	205136 30 406 406 0.00047068 0.00047068 1 4294967295 4294967295 4294967295 1.844674406512e+19
327	205166 42 406 418 0.00047068 0.00061308 2 0 0 0 0
328	205208 23 419 419 0.00061308 0.00061308 1 100 100 100 10000
329	205231 30 419 419 0.00061308 0.00061308 1 0.00021883 0.00021883 0.00021883 4.78865689e-08
330	205261 23 421 421 0.00061308 0.00061308 1 100 100 100 10000
331	205284 30 421 421 0.00061308 0.00061308 1 0.00021883 0.00021883 0.00021883 4.78865689e-08
332	205314 30 479 479 0.00068951 0.00068951 1 0.00029526 0.00029526 0.00029526 8.71784676e-08
333	205344 31 479 479 0.00068951 0.00068951 1 3.69075e-05 3.69075e-05 3.69075e-05 1.36216355625e-09
334	205375 32 479 479 0.00068951 0.00068951 1 0.6562869075 0.6562869075 0.6562869075 0.43071250495591
335	205407 32 479 479 0.00068951 0.00068951 1 2.6251845375 2.6251845375 2.6251845375 6.8915938559291
336	205439 24 479 479 0.00068951 0.00068951 1 1072 1072 1072 1149184
337	205463 30 479 479 0.00068951 0.00068951 1 4294967295 4294967295 4294967295 1.844674406512e+19
338	205493 30 480 480 0.00068951 0.00068951 1 0.00029526 0.00029526 0.00029526 8.71784676e-08
339	205523 31 480 480 0.00068951 0.00068951 1 3.69075e-05 3.69075e-05 3.69075e-05 1.36216355625e-09
340	205554 32 480 480 0.00068951 0.00068951 1 0.6562869075 0.6562869075 0.6562869075 0.43071250495591
341	205586 32 480 480 0.00068951 0.00068951 1 2.6251845375 2.6251845375 2.6251845375 6.8915938559291
342	205618 24 480 480 0.00068951 0.00068951 1 1072 1072 1072 1149184
343	205642 30 480 480 0.00068951 0.00068951 1 4294967295 4294967295 4294967295 1.844674406512e+19
344	205672 1967 484 2840 0.06235636964 6.46235636964 73 272 2800 37568 39912192
345	207639 3634 484 2842 0.06235636964 6.46235636964 146 0 2 77 81
346	211273 3790 484 2842 0.06235636964 6.46235636964 146 0 5480 48432 98930048
347	215063 1817 484 2840 0.06235636964 6.46235636964 73 0 7 236 1184
348	216880 1884 486 2842 0.06235636964 6.46235636964 73 0 3.402179255591 6.804398814569 23.144925343138
349	218764 1967 486 2842 0.06235636964 6.46235636964 73 272 2800 37568 39912192
350	220731 2493 486 2842 0.06235636964 6.46235636964 78 24000000 54000000 1992000000 5.4288e+16
351	223224 2029 486 2842 0.06235636964 6.46235636964 78 14 350 4766 624608
352	225253 7788 487 2847 0.06235636964 6.46240236964 312 0 2 312 468
353	233041 2029 490 2846 0.06240236964 6.46240236964 78 14 350 4766 624608
354	235070 1787 490 2846 0.06240236964 6.46240236964 69 49 350 4543 617619
355	236857 1787 490 2846 0.06240236964 6.46240236964 69 49 350 4543 617619
356	238644 2029 490 2846 0.06240236964 6.46240236964 78 14 350 4766 624608
357	240673 2278 490 2846 0.06240236964 6.46240236964 73 4.6e-05 0.00035 0.004122787654 3.7694795450385e-07
358	242951 1805 496 2854 0.064589411509 6.464589411509 65 392 392 25480 9988160
359	244756 3350 496 2856 0.064589411509 6.464589411509 130 0 1 65 65
360	248106 3480 496 2856 0.064589411509 6.464589411509 130 0 392 25480 9988160
361	251586 1675 496 2854 0.064589411509 6.464589411509 65 0 7 229 1169
362	253261 1675 498 2856 0.064589411509 6.464589411509 65 0 0 0 0
363	254936 1805 498 2856 0.064589411509 6.464589411509 65 392 392 25480 9988160
364	256741 2130 498 2856 0.064589411509 6.464589411509 65 24000000 24000000 1560000000 3.744e+16
365	258871 1740 498 2856 0.064589411509 6.464589411509 65 49 49 3185 156065
366	260611 6700 499 2860 0.064589411509 6.464635411509 260 0 2 260 390
367	267311 1740 501 2859 0.064635411509 6.464635411509 65 49 49 3185 156065
368	269051 1740 501 2859 0.064635411509 6.464635411509 65 49 49 3185 156065
369	270791 1740 501 2859 0.064635411509 6.464635411509 65 49 49 3185 156065
370	272531 1740 501 2859 0.064635411509 6.464635411509 65 49 49 3185 156065
371	274271 2065 501 2859 0.064635411509 6.464635411509 65 4.6e-05 4.6e-05 0.00299 1.3754e-07
372	276336 403 511 1874 0.10001 3.401756227297 18 256 2680 9424 14942336
373	276739 531 511 1647 0.1 3.4 34 0 2560 33280 85196800
374	277270 730 511 1878 0.10001 3.401926227297 36 0 1 18 18
375	278000 768 511 1878 0.10001 3.401926227297 36 0 2680 9424 14942336
376	278768 365 511 1874 0.10001 3.401756227297 18 1 6 74 368
377	279133 392 513 1878 0.10001 3.401926227297 18 0 0.000214 0.000712 1.30288e-07
378	279525 403 513 1878 0.10001 3.401926227297 18 256 2680 9424 14942336
379	279928 531 513 1650 0.1 3.4 34 0 2560 33280 85196800
380	280459 622 513 1878 0.10001 3.401926227297 22 24000000 54000000 588000000 1.7352e+16
381	281081 492 513 1878 0.10001 3.401926227297 22 14 335 1234 234258
382	281573 1900 514 1883 0.10001 3.402004227297 88 0 2 88 132
383	283473 506 517 1882 0.100048 3.402004227297 22 14 335 1234 234258
384	283979 268 517 1583 0.100048 3.250048 13 32 32 416 13312
385	284247 268 517 1583 0.100048 3.250048 13 32 32 416 13312
386	284515 506 517 1882 0.100048 3.402004227297 22 14 335 1234 234258
387	285021 525 517 1911 0.100048 3.402050283876 18 3.8e-05 0.000124056718 0.001006283951 7.2814148885724e-08
388	285546 1128 524 2840 0.1 6.4 64 3920 120880 371760 15626156800
389	286674 1128 526 2842 0.1 6.4 64 3920 120880 371760 15626156800
390	287802 1126 536 2854 0.1 6.4 64 3920 3920 250880 983449600
391	288928 1126 538 2856 0.1 6.4 64 3920 3920 250880 983449600
392	290054 1291 660 2849 0.562403681975 6.462403091899 48 14 350 3296 552578
393	291345 1236 660 2849 0.562403681975 6.462403091899 46 14 350 2638 336024
394	292581 994 660 2849 0.562403681975 6.462403091899 37 49 350 2415 329035
395	293575 994 660 2849 0.562403681975 6.462403091899 37 49 350 2415 329035
396	294569 1236 660 2849 0.562403681975 6.462403091899 46 14 350 2638 336024
397	295805 270 689 1885 0.600049308568 3.402005255591 10 14 335 850 221970
398	296075 270 689 1885 0.600049308568 3.402005255591 10 14 335 850 221970
399	296345 26 689 689 0.600049308568 0.600049308568 1 32 32 32 1024
400	296371 26 689 689 0.600049308568 0.600049308568 1 32 32 32 1024
401	296397 270 689 1885 0.600049308568 3.402005255591 10 14 335 850 221970
402	296667 242 699 1908 0.600165308568 3.402049255591 9 14 49 223 6989
403	296909 333 699 1792 0.600165308568 3.401141142234 12 0 4.4e-05 0.000176 7.744e-09
404	297242 242 702 1911 0.600166617126 3.402050283876 9 14 49 223 6989
405	297484 238 710 1882 0.600210617126 3.402004227297 9 14 335 818 220946
406	297722 244 713 1885 0.600211925678 3.402005255591 9 14 335 818 220946
407	297966 71 1644 1784 3.40001 3.401098170615 3 1 4 7 21
408	298037 402 1654 1907 3.400052 3.402048227297 15 0 4.4e-05 0.00022 9.68e-09
409	298439 56 1809 1885 3.401311198978 3.402005255591 2 295 307 602 181274
410	298495 112 1811 1914 3.401311198978 3.402058555591 4 287 314 1214 368962
411	298607 112 1813 1916 3.401311198978 3.402058555591 4 287 314 1214 368962
412	298719 58 1814 1890 3.401311198978 3.402005255591 2 2440 2536 4976 12384896
413	298777 504 1814 1814 0.1 3.4 34 0 0 0 0
414	299281 52 1814 1890 3.401311198978 3.402005255591 2 0 0 0 0
415	299333 58 1814 1890 3.401311198978 3.402005255591 2 2440 2536 4976 12384896
416	299391 504 1814 1814 0.1 3.4 34 0 0 0 0
417	299895 56 1814 1890 3.401311198978 3.402005255591 2 305 317 622 193514
418	299951 52 1814 1890 3.401311198978 3.402005255591 2 0 0 0 0
419	300003 52 1814 1890 3.401311198978 3.402005255591 2 0 0 0 0
420	300055 56 1820 1896 3.401336238978 3.402031255591 2 305 317 622 193514
421	300111 56 1821 1897 3.401336288978 3.402031305591 2 305 317 622 193514
422	300167 56 1821 1897 3.401336288978 3.402031305591 2 305 317 622 193514
423	300223 56 1824 1900 3.401336288978 3.402031305591 2 267 279 546 149130
424	300279 56 1826 1902 3.401336288978 3.402031305591 2 294 294 588 172872
425	300335 58 1829 1905 3.401336288978 3.402031305591 2 2656 2656 5312 14108672
426	300393 504 1829 1829 0.1 3.4 34 0 0 0 0
427	300897 52 1829 1905 3.401336288978 3.402031305591 2 0 0 0 0
428	300949 58 1829 1905 3.401336288978 3.402031305591 2 2656 2656 5312 14108672
429	301007 504 1829 1829 0.1 3.4 34 0 0 0 0
430	301511 56 1829 1905 3.401336288978 3.402031305591 2 332 332 664 220448
431	301567 52 1829 1905 3.401336288978 3.402031305591 2 0 0 0 0
432	301619 52 1829 1905 3.401336288978 3.402031305591 2 0 0 0 0
433	301671 56 1836 1912 3.401363488978 3.402058505591 2 332 332 664 220448
434	301727 56 1837 1913 3.401363538978 3.402058555591 2 332 332 664 220448
435	301783 56 1837 1913 3.401363538978 3.402058555591 2 332 332 664 220448
436	301839 56 1842 1918 3.401363538978 3.402058555591 2 322 322 644 207368
437	301895 55 1855 1931 3.401564227316 3.40225828386 2 323 335 658 216554
438	301950 55 1855 1931 3.401564227316 3.40225828386 2 323 335 658 216554
439	302005 55 1855 1931 3.401564227316 3.40225828386 2 323 335 658 216554
440	302060 56 1866 1942 3.401756227297 3.402530283833 2 322 322 644 207368
441	302116 56 1869 1945 3.401756227297 3.402530283833 2 294 294 588 172872

