version 3
run AirportOperation1-0-20230922-07:24:21-33687
attr configname AirportOperation1
attr datetime 20230922-07:24:21
attr datetimef 20230922-072421
attr experiment AirportOperation1
attr inifile omnetpp.ini
attr iterationvars ""
attr iterationvarsd ""
attr iterationvarsf ""
attr measurement ""
attr network AirportNetwork
attr processid 33687
attr repetition 0
attr replication #0
attr resultdir results
attr runnumber 0
attr seedset 0
config image-path ../../inet4.5/images
config network AirportNetwork
config description "Single Airport Single Wifi Ground Operation Network"
config *.configurator.config "xmldoc(\"AeroCommNetwok.xml\")"
config *.*Agent.numApps 1
config *.*Agent.app[0].typename AcpAgentApp
config *.istAreaAgent.app[0].nodeName "\"ISTAGENT\""
config *.ankAreaAgent.app[0].nodeName "\"ANKAGENT\""
config **.atm*Router.hasDhcp true
config *.atmSawRouter.dhcp.numReservedAddresses 2
config *.atmSawRouter.dhcp.leaseTime 10000s
config *.atmSawRouter.dhcp.maxNumClients 2
config *.atmSawRouter.dhcp.interface "\"eth2\""
config *.atmEsbRouter.dhcp.numReservedAddresses 2
config *.atmEsbRouter.dhcp.leaseTime 10000s
config *.atmEsbRouter.dhcp.maxNumClients 1
config *.atmEsbRouter.dhcp.interface "\"eth2\""
config **.*AP.wlan[*].mgmt.typename Ieee80211MgmtAp
config **.*AP.wlan[*].radio.transmitter.power 10000mW
config **.*AP.wlan[*].radio.displayCommunicationRange true
config **.*AP.wlan[*].mgmt.beaconInterval 100ms
config **.*AP.wlan[*].radio.transmitter.headerLength 96b
config **.*AP.wlan[*].radio.receiver.sensitivity -85dBm
config **.*AP.wlan[*].radio.receiver.snirThreshold 4dB
config *.atmSawAP.wlan[*].mgmt.ssid "\"SAWAP\""
config *.atmSawAP.wlan[*].radio.channelNumber 2
config *.atmEsbAP.wlan[*].radio.channelNumber 3
config *.atmEsbAP.wlan[*].mgmt.ssid "\"ESBAP\""
config *.sawTower.numApps 1
config *.sawTower.app[0].typename AcpClientApp
config *.sawTower.app[0].atcAgentName "\"ISTAGENT\""
config *.sawTower.app[0].atcAgentConnAddr "\"istAreaAgent\""
config *.sawTower.app[0].nodeName "\"SAWTOWER\""
config *.sawTower.app[0].adjAtcName "\"ESBTOWER\""
config *.sawTower.app[0].adjAtcConnAgentName "\"ANKAGENT\""
config *.sawTower.app[0].adjAtcConnAgentAddr "\"ankAreaAgent\""
config *.esbTower.numApps 1
config *.esbTower.app[0].typename AcpClientApp
config *.esbTower.app[0].atcAgentName "\"ANKAGENT\""
config *.esbTower.app[0].atcAgentConnAddr "\"ankAreaAgent\""
config *.esbTower.app[0].nodeName "\"ESBTOWER\""
config *.esbTower.app[0].adjAtcName "\"ESBGROUND\""
config *.esbTower.app[0].adjAtcConnAgentName "\"ANKAGENT\""
config *.esbTower.app[0].adjAtcConnAgentAddr "\"ankAreaAgent\""
config *.*Flight.numApps 2
config *.*Flight.wlan[*].mgmt.typename Ieee80211MgmtSta
config *.*Flight.wlan[*].radio.transmitter.power 1000mW
config *.*Flight.wlan[*].radio.displayCommunicationRange true
config *.*Flight.wlan[*].radio.channelNumber 0
config *.*Flight.wlan[*].agent.defaultSsid "\"\""
config *.*Flight.wlan[0].agent.activeScan true
config *.*Flight.wlan[0].agent.channelsToScan "\"\""
config *.*Flight.wlan[0].agent.probeDelay 0.1s
config *.*Flight.wlan[0].agent.minChannelTime 0.15s
config *.*Flight.wlan[0].agent.maxChannelTime 0.3s
config *.*Flight.wlan[0].agent.startingTime 0.00001s
config *.*Flight.wlan[0].agent.associationTimeout 5s
config *.*Flight.wlan[0].agent.authenticationTimeout 5s
config *.thyFlight.app[0].typename DhcpClient
config *.thyFlight.app[1].typename AcpClientApp
config *.thyFlight.app[1].nodeName "\"THY01\""
config *.thyFlight.app[1].currentDataAuthorityName "\"SAWTOWER\""
config *.thyFlight.app[1].nextDataAuthorityName "\"ESBTOWER\""
config *.thyFlight.app[1].atcAgentName "\"ISTAGENT\""
config *.thyFlight.app[1].atcAgentConnAddr "\"istAreaAgent\""
config *.thyFlight.mobility.typename LinearMobility
config *.thyFlight.mobility.initFromDisplayString true
config *.thyFlight.mobility.speed 30mps
config *.*Flight.mobility.updateInterval 100ms
config *.thyFlight.mobility.initialMovementHeading 360deg
config description "Aeronautical Communication Network"
config network AirportNetwork
config *.configurator.dumpAddresses true
config *.configurator.dumpTopology true
config *.configurator.dumpLinks true
config *.configurator.dumpRoutes true
config *.*.ipv4.arp.typename GlobalArp
config *.*.ipv4.routingTable.netmaskRoutes "\"\""
config **.forwarding true
config **.mgmt.numChannels 13
config *.*.wlan[*].bitrate 54Mbps
config **.analogModel.ignorePartialInterference true
config **.wlan[*].mac.headerLength 1B
config **.wlan[*].mgmt.numAuthSteps 4
config **.wlan[*].mac.dcf.channelAccess.cwMin 7
config **.constraintAreaMinX 0m
config **.constraintAreaMinY 0m
config **.constraintAreaMinZ 0m
config **.constraintAreaMaxX 100000m
config **.constraintAreaMaxY 100000m
config **.constraintAreaMaxZ 0m
config *.visualizer.routingTableVisualizer.displayRoutingTables false
config *.visualizer.routingTableVisualizer.destinationFilter "\"*\""
config *.visualizer.routingTableVisualizer.lineShift 0
config *.visualizer.routingTableVisualizer.labelFormat "\"\""
config **.visualizer.ieee80211Visualizer.displayAssociations true
config **.visualizer.mediumVisualizer.displaySignals true
config **.visualizer.mediumVisualizer.displaySignalArrivals false
config **.visualizer.mediumVisualizer.displaySignalDepartures false
config **.visualizer.mediumVisualizer.displayReceptions false
config **.visualizer.mediumVisualizer.displayTransmissions false
config **.visualizer.mediumVisualizer.displayCommunicationRanges true
config **.visualizer.mediumVisualizer.displayInterferenceRanges false
config **.visualizer.physicalLinkVisualizer.displayLinks true
config **.visualizer.networkRouteVisualizer.displayRoutes true
config **.visualizer.networkRouteVisualizer.packetFilter "\"LOGON\""
config **.visualizer.networkRouteVisualizer.fadeOutMode "\"simulationTime\""
config **.visualizer.networkRouteVisualizer.fadeOutTime 5s
config **.visualizer.pathVisualizer.displayRoutes true
config **.visualizer.pathVisualizer.fadeOutTime 3s
config **.visualizer.dataLinkVisualizer.displayLinks true
config **.visualizer.dataLinkVisualizer.fadeOutMode "\"simulationTime\""
config **.visualizer.dataLinkVisualizer.fadeOutTime 1.4s
config **.visualizer.dataLinkVisualizer.packetFilter "\"LOGON\""
config **.visualizer.dataLinkVisualizer.nodeFilter "\"*\""
config **.visualizer.interfaceTableVisualizer.displayInterfaceTables false
config **.visualizer.interfaceTableVisualizer.nodeFilter "\"*\""
config **.visualizer.interfaceTableVisualizer.interfaceFilter "\"not lo* and not ipv4Address =~ '<unspec>'\""
config **.visualizer.mobilityVisualizer.animationSpeed 1
config **.visualizer.mobilityVisualizer.displayMovementTrails true
config **.visualizer.mobilityVisualizer.trailLength 50
config **.visualizer.mobilityVisualizer.displayVelocities true
config **.visualizer.mobilityVisualizer.displayOrientations true
config **.visualizer.transportConnectionVisualizer.displayTransportConnections true
config **.visualizer.transportConnectionVisualizer.destinationPortFilter "\"1000\""
config **.visualizer.transportConnectionVisualizer.placementHint "\"topCenter\""
config **.visualizer.transportRouteVisualizer.displayRoutes true
config **.visualizer.transportRouteVisualizer.fadeOutMode "\"simulationTime\""
config **.visualizer.transportRouteVisualizer.fadeOutTime 1.2s
config **.visualizer.transportRouteVisualizer.packetFilter "\"LOGON\""
config **.visualizer.transportRouteVisualizer.nodeFilter "\"*\""
config **.visualizer.packetDropVisualizer.displayPacketDrops false
config **.visualizer.packetDropVisualizer.labelFormat "\"name:%n /reason: %r/class:%c\""
config **.visualizer.packetDropVisualizer.fadeOutTime 3s

vector 0 AirportNetwork.istAreaAgent.udp passedUpPk:vector(count) ETV
attr interpolationmode none
attr recordingmode vector(count)
attr source packetSentToUpper
attr title "packets passed up, count"
vector 1 AirportNetwork.istAreaAgent.udp droppedPkWrongPort:vector(count) ETV
attr interpolationmode none
attr recordingmode vector(count)
attr source packetDropReasonIsNoPortFound(packetDropped)
attr title "packets dropped (wrong port), count"
vector 2 AirportNetwork.istAreaAgent.udp droppedPkBadChecksum:vector(count) ETV
attr interpolationmode none
attr recordingmode vector(count)
attr source packetDropReasonIsIncorrectlyReceived(packetDropped)
attr title "packets dropped (checksum error), count"
vector 3 AirportNetwork.ankAreaAgent.udp passedUpPk:vector(count) ETV
attr interpolationmode none
attr recordingmode vector(count)
attr source packetSentToUpper
attr title "packets passed up, count"
vector 4 AirportNetwork.ankAreaAgent.udp droppedPkWrongPort:vector(count) ETV
attr interpolationmode none
attr recordingmode vector(count)
attr source packetDropReasonIsNoPortFound(packetDropped)
attr title "packets dropped (wrong port), count"
vector 5 AirportNetwork.ankAreaAgent.udp droppedPkBadChecksum:vector(count) ETV
attr interpolationmode none
attr recordingmode vector(count)
attr source packetDropReasonIsIncorrectlyReceived(packetDropped)
attr title "packets dropped (checksum error), count"
vector 6 AirportNetwork.atmEsbRouter.udp passedUpPk:vector(count) ETV
attr interpolationmode none
attr recordingmode vector(count)
attr source packetSentToUpper
attr title "packets passed up, count"
vector 7 AirportNetwork.atmEsbRouter.udp droppedPkWrongPort:vector(count) ETV
attr interpolationmode none
attr recordingmode vector(count)
attr source packetDropReasonIsNoPortFound(packetDropped)
attr title "packets dropped (wrong port), count"
vector 8 AirportNetwork.atmEsbRouter.udp droppedPkBadChecksum:vector(count) ETV
attr interpolationmode none
attr recordingmode vector(count)
attr source packetDropReasonIsIncorrectlyReceived(packetDropped)
attr title "packets dropped (checksum error), count"
vector 9 AirportNetwork.atmSawRouter.udp passedUpPk:vector(count) ETV
attr interpolationmode none
attr recordingmode vector(count)
attr source packetSentToUpper
attr title "packets passed up, count"
vector 10 AirportNetwork.atmSawRouter.udp droppedPkWrongPort:vector(count) ETV
attr interpolationmode none
attr recordingmode vector(count)
attr source packetDropReasonIsNoPortFound(packetDropped)
attr title "packets dropped (wrong port), count"
vector 11 AirportNetwork.atmSawRouter.udp droppedPkBadChecksum:vector(count) ETV
attr interpolationmode none
attr recordingmode vector(count)
attr source packetDropReasonIsIncorrectlyReceived(packetDropped)
attr title "packets dropped (checksum error), count"
vector 12 AirportNetwork.atmSawAP.wlan[0].mac.dcf frameSequenceActive:vector ETV
attr autoWarmupFilter false
attr interpolationmode sample-hold
attr recordingmode vector
attr source warmup(count(frameSequenceStarted)-count(frameSequenceFinished))
attr title "frame sequence active"
vector 13 AirportNetwork.atmSawAP.wlan[0].mac.dcf.channelAccess.inProgressFrames queueLength:vector ETV
attr autoWarmupFilter false
attr interpolationmode sample-hold
attr recordingmode vector
attr source "warmup(count(packetEnqueued) - count(packetDequeued))"
attr title "queue length"
vector 14 AirportNetwork.atmSawAP.wlan[0].mac.dcf.channelAccess.contention backoffActive:vector ETV
attr autoWarmupFilter false
attr interpolationmode sample-hold
attr recordingmode vector
attr source warmup(count(backoffStarted)-count(backoffStopped))
attr title "backoff active"
vector 15 AirportNetwork.atmEsbAP.wlan[0].mac.dcf frameSequenceActive:vector ETV
attr autoWarmupFilter false
attr interpolationmode sample-hold
attr recordingmode vector
attr source warmup(count(frameSequenceStarted)-count(frameSequenceFinished))
attr title "frame sequence active"
vector 16 AirportNetwork.atmEsbAP.wlan[0].mac.dcf.channelAccess.inProgressFrames queueLength:vector ETV
attr autoWarmupFilter false
attr interpolationmode sample-hold
attr recordingmode vector
attr source "warmup(count(packetEnqueued) - count(packetDequeued))"
attr title "queue length"
vector 17 AirportNetwork.atmEsbAP.wlan[0].mac.dcf.channelAccess.contention backoffActive:vector ETV
attr autoWarmupFilter false
attr interpolationmode sample-hold
attr recordingmode vector
attr source warmup(count(backoffStarted)-count(backoffStopped))
attr title "backoff active"
vector 18 AirportNetwork.sawDelivery.udp passedUpPk:vector(count) ETV
attr interpolationmode none
attr recordingmode vector(count)
attr source packetSentToUpper
attr title "packets passed up, count"
vector 19 AirportNetwork.sawDelivery.udp droppedPkWrongPort:vector(count) ETV
attr interpolationmode none
attr recordingmode vector(count)
attr source packetDropReasonIsNoPortFound(packetDropped)
attr title "packets dropped (wrong port), count"
vector 20 AirportNetwork.sawDelivery.udp droppedPkBadChecksum:vector(count) ETV
attr interpolationmode none
attr recordingmode vector(count)
attr source packetDropReasonIsIncorrectlyReceived(packetDropped)
attr title "packets dropped (checksum error), count"
vector 21 AirportNetwork.sawGround.udp passedUpPk:vector(count) ETV
attr interpolationmode none
attr recordingmode vector(count)
attr source packetSentToUpper
attr title "packets passed up, count"
vector 22 AirportNetwork.sawGround.udp droppedPkWrongPort:vector(count) ETV
attr interpolationmode none
attr recordingmode vector(count)
attr source packetDropReasonIsNoPortFound(packetDropped)
attr title "packets dropped (wrong port), count"
vector 23 AirportNetwork.sawGround.udp droppedPkBadChecksum:vector(count) ETV
attr interpolationmode none
attr recordingmode vector(count)
attr source packetDropReasonIsIncorrectlyReceived(packetDropped)
attr title "packets dropped (checksum error), count"
vector 24 AirportNetwork.sawTower.udp passedUpPk:vector(count) ETV
attr interpolationmode none
attr recordingmode vector(count)
attr source packetSentToUpper
attr title "packets passed up, count"
vector 25 AirportNetwork.sawTower.udp droppedPkWrongPort:vector(count) ETV
attr interpolationmode none
attr recordingmode vector(count)
attr source packetDropReasonIsNoPortFound(packetDropped)
attr title "packets dropped (wrong port), count"
vector 26 AirportNetwork.sawTower.udp droppedPkBadChecksum:vector(count) ETV
attr interpolationmode none
attr recordingmode vector(count)
attr source packetDropReasonIsIncorrectlyReceived(packetDropped)
attr title "packets dropped (checksum error), count"
vector 27 AirportNetwork.esbTower.udp passedUpPk:vector(count) ETV
attr interpolationmode none
attr recordingmode vector(count)
attr source packetSentToUpper
attr title "packets passed up, count"
vector 28 AirportNetwork.esbTower.udp droppedPkWrongPort:vector(count) ETV
attr interpolationmode none
attr recordingmode vector(count)
attr source packetDropReasonIsNoPortFound(packetDropped)
attr title "packets dropped (wrong port), count"
vector 29 AirportNetwork.esbTower.udp droppedPkBadChecksum:vector(count) ETV
attr interpolationmode none
attr recordingmode vector(count)
attr source packetDropReasonIsIncorrectlyReceived(packetDropped)
attr title "packets dropped (checksum error), count"
vector 30 AirportNetwork.esbGround.udp passedUpPk:vector(count) ETV
attr interpolationmode none
attr recordingmode vector(count)
attr source packetSentToUpper
attr title "packets passed up, count"
vector 31 AirportNetwork.esbGround.udp droppedPkWrongPort:vector(count) ETV
attr interpolationmode none
attr recordingmode vector(count)
attr source packetDropReasonIsNoPortFound(packetDropped)
attr title "packets dropped (wrong port), count"
vector 32 AirportNetwork.esbGround.udp droppedPkBadChecksum:vector(count) ETV
attr interpolationmode none
attr recordingmode vector(count)
attr source packetDropReasonIsIncorrectlyReceived(packetDropped)
attr title "packets dropped (checksum error), count"
vector 33 AirportNetwork.esbDelivery.udp passedUpPk:vector(count) ETV
attr interpolationmode none
attr recordingmode vector(count)
attr source packetSentToUpper
attr title "packets passed up, count"
vector 34 AirportNetwork.esbDelivery.udp droppedPkWrongPort:vector(count) ETV
attr interpolationmode none
attr recordingmode vector(count)
attr source packetDropReasonIsNoPortFound(packetDropped)
attr title "packets dropped (wrong port), count"
vector 35 AirportNetwork.esbDelivery.udp droppedPkBadChecksum:vector(count) ETV
attr interpolationmode none
attr recordingmode vector(count)
attr source packetDropReasonIsIncorrectlyReceived(packetDropped)
attr title "packets dropped (checksum error), count"
vector 36 AirportNetwork.thyFlight.wlan[0].mac.dcf frameSequenceActive:vector ETV
attr autoWarmupFilter false
attr interpolationmode sample-hold
attr recordingmode vector
attr source warmup(count(frameSequenceStarted)-count(frameSequenceFinished))
attr title "frame sequence active"
vector 37 AirportNetwork.thyFlight.wlan[0].mac.dcf.channelAccess.inProgressFrames queueLength:vector ETV
attr autoWarmupFilter false
attr interpolationmode sample-hold
attr recordingmode vector
attr source "warmup(count(packetEnqueued) - count(packetDequeued))"
attr title "queue length"
vector 38 AirportNetwork.thyFlight.wlan[0].mac.dcf.channelAccess.contention backoffActive:vector ETV
attr autoWarmupFilter false
attr interpolationmode sample-hold
attr recordingmode vector
attr source warmup(count(backoffStarted)-count(backoffStopped))
attr title "backoff active"
vector 39 AirportNetwork.thyFlight.udp passedUpPk:vector(count) ETV
attr interpolationmode none
attr recordingmode vector(count)
attr source packetSentToUpper
attr title "packets passed up, count"
vector 40 AirportNetwork.thyFlight.udp droppedPkWrongPort:vector(count) ETV
attr interpolationmode none
attr recordingmode vector(count)
attr source packetDropReasonIsNoPortFound(packetDropped)
attr title "packets dropped (wrong port), count"
vector 41 AirportNetwork.thyFlight.udp droppedPkBadChecksum:vector(count) ETV
attr interpolationmode none
attr recordingmode vector(count)
attr source packetDropReasonIsIncorrectlyReceived(packetDropped)
attr title "packets dropped (checksum error), count"
vector 42 AirportNetwork.atmSawAP.wlan[0].radio radioMode:vector ETV
attr interpolationmode sample-hold
attr recordingmode vector
attr source radioModeChanged
attr title "Radio mode"
vector 43 AirportNetwork.atmSawAP.wlan[0].radio radioChannel:vector ETV
attr interpolationmode sample-hold
attr recordingmode vector
attr source radioChannelChanged
attr title "Radio channel"
vector 44 AirportNetwork.atmEsbAP.wlan[0].radio radioMode:vector ETV
attr interpolationmode sample-hold
attr recordingmode vector
attr source radioModeChanged
attr title "Radio mode"
vector 45 AirportNetwork.atmEsbAP.wlan[0].radio radioChannel:vector ETV
attr interpolationmode sample-hold
attr recordingmode vector
attr source radioChannelChanged
attr title "Radio channel"
vector 46 AirportNetwork.thyFlight.wlan[0].radio radioMode:vector ETV
attr interpolationmode sample-hold
attr recordingmode vector
attr source radioModeChanged
attr title "Radio mode"
vector 47 AirportNetwork.thyFlight.wlan[0].radio radioChannel:vector ETV
attr interpolationmode sample-hold
attr recordingmode vector
attr source radioChannelChanged
attr title "Radio channel"
vector 48 AirportNetwork.atmSawAP.wlan[0].radio receptionState:vector ETV
attr interpolationmode sample-hold
attr recordingmode vector
attr source receptionStateChanged
attr title "Radio reception state"
vector 49 AirportNetwork.atmSawAP.wlan[0].mac.dcf.channelAccess.contention stateChanged:vector ETV
attr enum IDLE,DEFER,IFS_AND_BACKOFF
attr interpolationmode none
attr recordingmode vector
attr title "contention state changed"
attr type enum
vector 50 AirportNetwork.atmEsbAP.wlan[0].radio receptionState:vector ETV
attr interpolationmode sample-hold
attr recordingmode vector
attr source receptionStateChanged
attr title "Radio reception state"
vector 51 AirportNetwork.atmEsbAP.wlan[0].mac.dcf.channelAccess.contention stateChanged:vector ETV
attr enum IDLE,DEFER,IFS_AND_BACKOFF
attr interpolationmode none
attr recordingmode vector
attr title "contention state changed"
attr type enum
vector 52 AirportNetwork.thyFlight.wlan[0].radio receptionState:vector ETV
attr interpolationmode sample-hold
attr recordingmode vector
attr source receptionStateChanged
attr title "Radio reception state"
vector 53 AirportNetwork.thyFlight.wlan[0].mac.dcf.channelAccess.contention stateChanged:vector ETV
attr enum IDLE,DEFER,IFS_AND_BACKOFF
attr interpolationmode none
attr recordingmode vector
attr title "contention state changed"
attr type enum
vector 54 AirportNetwork.atmSawAP.wlan[0].mac.dcf.recoveryProcedure contentionWindowChanged:vector ETV
attr interpolationmode sample-hold
attr recordingmode vector
attr title "contention window"
vector 55 AirportNetwork.atmEsbAP.wlan[0].mac.dcf.recoveryProcedure contentionWindowChanged:vector ETV
attr interpolationmode sample-hold
attr recordingmode vector
attr title "contention window"
vector 56 AirportNetwork.thyFlight.wlan[0].mac.dcf.recoveryProcedure contentionWindowChanged:vector ETV
attr interpolationmode sample-hold
attr recordingmode vector
attr title "contention window"
vector 57 AirportNetwork.sawTower.tcp.conn-8 tcpRcvQueueBytes:vector ETV
attr interpolationmode sample-hold
attr recordingmode vector
vector 58 AirportNetwork.sawTower.tcp.conn-8 rcvAdv:vector ETV
attr interpolationmode sample-hold
attr recordingmode vector
vector 59 AirportNetwork.sawTower.tcp.conn-8 rcvWnd:vector ETV
attr interpolationmode sample-hold
attr recordingmode vector
vector 60 AirportNetwork.sawTower.tcp.conn-8 sndAck:vector ETV
attr interpolationmode sample-hold
attr recordingmode vector
vector 61 AirportNetwork.esbTower.tcp.conn-9 tcpRcvQueueBytes:vector ETV
attr interpolationmode sample-hold
attr recordingmode vector
vector 62 AirportNetwork.esbTower.tcp.conn-9 rcvAdv:vector ETV
attr interpolationmode sample-hold
attr recordingmode vector
vector 63 AirportNetwork.esbTower.tcp.conn-9 rcvWnd:vector ETV
attr interpolationmode sample-hold
attr recordingmode vector
vector 64 AirportNetwork.esbTower.tcp.conn-9 sndAck:vector ETV
attr interpolationmode sample-hold
attr recordingmode vector
vector 65 AirportNetwork.thyFlight.udp packetSent:vector(packetBytes) ETV
attr interpolationmode none
attr recordingmode vector(packetBytes)
attr source packetSent
attr title "packets sent, packetBytes"
vector 66 AirportNetwork.sawTower.ethernet encapPk:vector(packetBytes) ETV
attr interpolationmode none
attr recordingmode vector(packetBytes)
attr source encapPk
attr title "packets encapsulated, packetBytes"
vector 67 AirportNetwork.esbTower.ethernet encapPk:vector(packetBytes) ETV
attr interpolationmode none
attr recordingmode vector(packetBytes)
attr source encapPk
attr title "packets encapsulated, packetBytes"
vector 68 AirportNetwork.sawTower.eth[0].queue incomingPacketLengths:vector ETV
attr interpolationmode none
attr recordingmode vector
attr source packetLength(packetPushStarted)
attr title "incoming packet lengths"
attr unit b
vector 69 AirportNetwork.sawTower.eth[0].queue queueingTime:vector ETV
attr interpolationmode none
attr recordingmode vector
attr source queueingTime(packetPulled)
attr title "queueing times"
attr unit s
vector 70 AirportNetwork.sawTower.eth[0].queue outgoingPacketLengths:vector ETV
attr interpolationmode none
attr recordingmode vector
attr source packetLength(packetPulled)
attr title "outgoing packet lengths"
attr unit b
vector 71 AirportNetwork.sawTower.eth[0].mac packetReceivedFromUpper:vector(packetBytes) ETV
attr interpolationmode none
attr recordingmode vector(packetBytes)
attr source packetReceivedFromUpper
attr title "packet bytes from higher layer, packetBytes"
vector 72 AirportNetwork.sawTower.eth[0].queue queueLength:vector ETV
attr autoWarmupFilter false
attr interpolationmode sample-hold
attr recordingmode vector
attr source "warmup(atomic(constant0(packetPushEnded) + count(packetPushStarted) - count(packetPulled) - count(packetRemoved) - count(packetDropped)))"
attr title "queue length"
attr unit pk
vector 73 AirportNetwork.sawTower.eth[0].queue queueBitLength:vector ETV
attr autoWarmupFilter false
attr interpolationmode sample-hold
attr recordingmode vector
attr source "warmup(atomic(constant0(packetPushEnded) + sum(packetLength(packetPushStarted)) - sum(packetLength(packetPulled)) - sum(packetLength(packetRemoved)) - sum(packetLength(packetDropped))))"
attr title "queue bit length"
attr unit b
vector 74 AirportNetwork.esbTower.eth[0].queue incomingPacketLengths:vector ETV
attr interpolationmode none
attr recordingmode vector
attr source packetLength(packetPushStarted)
attr title "incoming packet lengths"
attr unit b
vector 75 AirportNetwork.esbTower.eth[0].queue queueingTime:vector ETV
attr interpolationmode none
attr recordingmode vector
attr source queueingTime(packetPulled)
attr title "queueing times"
attr unit s
vector 76 AirportNetwork.esbTower.eth[0].queue outgoingPacketLengths:vector ETV
attr interpolationmode none
attr recordingmode vector
attr source packetLength(packetPulled)
attr title "outgoing packet lengths"
attr unit b
vector 77 AirportNetwork.esbTower.eth[0].mac packetReceivedFromUpper:vector(packetBytes) ETV
attr interpolationmode none
attr recordingmode vector(packetBytes)
attr source packetReceivedFromUpper
attr title "packet bytes from higher layer, packetBytes"
vector 78 AirportNetwork.esbTower.eth[0].queue queueLength:vector ETV
attr autoWarmupFilter false
attr interpolationmode sample-hold
attr recordingmode vector
attr source "warmup(atomic(constant0(packetPushEnded) + count(packetPushStarted) - count(packetPulled) - count(packetRemoved) - count(packetDropped)))"
attr title "queue length"
attr unit pk
vector 79 AirportNetwork.esbTower.eth[0].queue queueBitLength:vector ETV
attr autoWarmupFilter false
attr interpolationmode sample-hold
attr recordingmode vector
attr source "warmup(atomic(constant0(packetPushEnded) + sum(packetLength(packetPushStarted)) - sum(packetLength(packetPulled)) - sum(packetLength(packetRemoved)) - sum(packetLength(packetDropped))))"
attr title "queue bit length"
attr unit b
vector 80 AirportNetwork.thyFlight.wlan[0].mac packetReceivedFromUpper:vector(packetBytes) ETV
attr interpolationmode none
attr recordingmode vector(packetBytes)
attr title "packets received from upper layer, packetBytes"
vector 81 AirportNetwork.thyFlight.wlan[0].mac packetDrop:vector(packetBytes) ETV
attr interpolationmode none
attr recordingmode vector(packetBytes)
attr source packetDropped
attr title "packet drops, packetBytes"
vector 82 AirportNetwork.thyFlight.wlan[0].mac packetDropOther:vector(packetBytes) ETV
attr interpolationmode none
attr recordingmode vector(packetBytes)
attr source packetDropReasonIsOther(packetDropped)
attr title "packet drops: other, packetBytes"
vector 83 AirportNetwork.thyFlight.wlan[0].agent sentRequest:vector ETV
attr recordingmode vector
attr title "sent requests"
vector 84 AirportNetwork.sawTower.eth[0].mac txPk:vector(packetBytes) ETV
attr interpolationmode none
attr recordingmode vector(packetBytes)
attr source packetSentToLower
attr title "packets transmitted, packetBytes"
vector 85 AirportNetwork.esbTower.eth[0].mac txPk:vector(packetBytes) ETV
attr interpolationmode none
attr recordingmode vector(packetBytes)
attr source packetSentToLower
attr title "packets transmitted, packetBytes"
vector 86 AirportNetwork.atmSawSwitch.eth[3].mac rxPkOk:vector(packetBytes) ETV
attr interpolationmode none
attr recordingmode vector(packetBytes)
attr source rxPkOk
attr title "packets received OK, packetBytes"
vector 87 AirportNetwork.atmSawSwitch.eth[3].mac passedUpPk:vector(packetBytes) ETV
attr interpolationmode none
attr recordingmode vector(packetBytes)
attr source packetSentToUpper
attr title "packets passed to higher layer, packetBytes"
vector 88 AirportNetwork.atmEsbSwitch.eth[1].mac rxPkOk:vector(packetBytes) ETV
attr interpolationmode none
attr recordingmode vector(packetBytes)
attr source rxPkOk
attr title "packets received OK, packetBytes"
vector 89 AirportNetwork.atmEsbSwitch.eth[1].mac passedUpPk:vector(packetBytes) ETV
attr interpolationmode none
attr recordingmode vector(packetBytes)
attr source packetSentToUpper
attr title "packets passed to higher layer, packetBytes"
vector 90 AirportNetwork.atmSawSwitch.ethernet decapPk:vector(packetBytes) ETV
attr interpolationmode none
attr recordingmode vector(packetBytes)
attr source decapPk
attr title "packets decapsulated, packetBytes"
vector 91 AirportNetwork.atmEsbSwitch.ethernet decapPk:vector(packetBytes) ETV
attr interpolationmode none
attr recordingmode vector(packetBytes)
attr source decapPk
attr title "packets decapsulated, packetBytes"
vector 92 AirportNetwork.atmSawSwitch.ethernet encapPk:vector(packetBytes) ETV
attr interpolationmode none
attr recordingmode vector(packetBytes)
attr source encapPk
attr title "packets encapsulated, packetBytes"
vector 93 AirportNetwork.atmEsbSwitch.ethernet encapPk:vector(packetBytes) ETV
attr interpolationmode none
attr recordingmode vector(packetBytes)
attr source encapPk
attr title "packets encapsulated, packetBytes"
vector 94 AirportNetwork.atmSawSwitch.eth[0].queue incomingPacketLengths:vector ETV
attr interpolationmode none
attr recordingmode vector
attr source packetLength(packetPushStarted)
attr title "incoming packet lengths"
attr unit b
vector 95 AirportNetwork.atmSawSwitch.eth[0].queue queueingTime:vector ETV
attr interpolationmode none
attr recordingmode vector
attr source queueingTime(packetPulled)
attr title "queueing times"
attr unit s
vector 96 AirportNetwork.atmSawSwitch.eth[0].queue outgoingPacketLengths:vector ETV
attr interpolationmode none
attr recordingmode vector
attr source packetLength(packetPulled)
attr title "outgoing packet lengths"
attr unit b
vector 97 AirportNetwork.atmSawSwitch.eth[0].mac packetReceivedFromUpper:vector(packetBytes) ETV
attr interpolationmode none
attr recordingmode vector(packetBytes)
attr source packetReceivedFromUpper
attr title "packet bytes from higher layer, packetBytes"
vector 98 AirportNetwork.atmSawSwitch.eth[0].queue queueLength:vector ETV
attr autoWarmupFilter false
attr interpolationmode sample-hold
attr recordingmode vector
attr source "warmup(atomic(constant0(packetPushEnded) + count(packetPushStarted) - count(packetPulled) - count(packetRemoved) - count(packetDropped)))"
attr title "queue length"
attr unit pk
vector 99 AirportNetwork.atmSawSwitch.eth[0].queue queueBitLength:vector ETV
attr autoWarmupFilter false
attr interpolationmode sample-hold
attr recordingmode vector
attr source "warmup(atomic(constant0(packetPushEnded) + sum(packetLength(packetPushStarted)) - sum(packetLength(packetPulled)) - sum(packetLength(packetRemoved)) - sum(packetLength(packetDropped))))"
attr title "queue bit length"
attr unit b
vector 100 AirportNetwork.atmSawSwitch.eth[1].queue incomingPacketLengths:vector ETV
attr interpolationmode none
attr recordingmode vector
attr source packetLength(packetPushStarted)
attr title "incoming packet lengths"
attr unit b
vector 101 AirportNetwork.atmSawSwitch.eth[1].queue queueingTime:vector ETV
attr interpolationmode none
attr recordingmode vector
attr source queueingTime(packetPulled)
attr title "queueing times"
attr unit s
vector 102 AirportNetwork.atmSawSwitch.eth[1].queue outgoingPacketLengths:vector ETV
attr interpolationmode none
attr recordingmode vector
attr source packetLength(packetPulled)
attr title "outgoing packet lengths"
attr unit b
vector 103 AirportNetwork.atmSawSwitch.eth[1].mac packetReceivedFromUpper:vector(packetBytes) ETV
attr interpolationmode none
attr recordingmode vector(packetBytes)
attr source packetReceivedFromUpper
attr title "packet bytes from higher layer, packetBytes"
vector 104 AirportNetwork.atmSawSwitch.eth[1].queue queueLength:vector ETV
attr autoWarmupFilter false
attr interpolationmode sample-hold
attr recordingmode vector
attr source "warmup(atomic(constant0(packetPushEnded) + count(packetPushStarted) - count(packetPulled) - count(packetRemoved) - count(packetDropped)))"
attr title "queue length"
attr unit pk
vector 105 AirportNetwork.atmSawSwitch.eth[1].queue queueBitLength:vector ETV
attr autoWarmupFilter false
attr interpolationmode sample-hold
attr recordingmode vector
attr source "warmup(atomic(constant0(packetPushEnded) + sum(packetLength(packetPushStarted)) - sum(packetLength(packetPulled)) - sum(packetLength(packetRemoved)) - sum(packetLength(packetDropped))))"
attr title "queue bit length"
attr unit b
vector 106 AirportNetwork.atmSawSwitch.eth[2].queue incomingPacketLengths:vector ETV
attr interpolationmode none
attr recordingmode vector
attr source packetLength(packetPushStarted)
attr title "incoming packet lengths"
attr unit b
vector 107 AirportNetwork.atmSawSwitch.eth[2].queue queueingTime:vector ETV
attr interpolationmode none
attr recordingmode vector
attr source queueingTime(packetPulled)
attr title "queueing times"
attr unit s
vector 108 AirportNetwork.atmSawSwitch.eth[2].queue outgoingPacketLengths:vector ETV
attr interpolationmode none
attr recordingmode vector
attr source packetLength(packetPulled)
attr title "outgoing packet lengths"
attr unit b
vector 109 AirportNetwork.atmSawSwitch.eth[2].mac packetReceivedFromUpper:vector(packetBytes) ETV
attr interpolationmode none
attr recordingmode vector(packetBytes)
attr source packetReceivedFromUpper
attr title "packet bytes from higher layer, packetBytes"
vector 110 AirportNetwork.atmSawSwitch.eth[2].queue queueLength:vector ETV
attr autoWarmupFilter false
attr interpolationmode sample-hold
attr recordingmode vector
attr source "warmup(atomic(constant0(packetPushEnded) + count(packetPushStarted) - count(packetPulled) - count(packetRemoved) - count(packetDropped)))"
attr title "queue length"
attr unit pk
vector 111 AirportNetwork.atmSawSwitch.eth[2].queue queueBitLength:vector ETV
attr autoWarmupFilter false
attr interpolationmode sample-hold
attr recordingmode vector
attr source "warmup(atomic(constant0(packetPushEnded) + sum(packetLength(packetPushStarted)) - sum(packetLength(packetPulled)) - sum(packetLength(packetRemoved)) - sum(packetLength(packetDropped))))"
attr title "queue bit length"
attr unit b
vector 112 AirportNetwork.atmEsbSwitch.eth[0].queue incomingPacketLengths:vector ETV
attr interpolationmode none
attr recordingmode vector
attr source packetLength(packetPushStarted)
attr title "incoming packet lengths"
attr unit b
vector 113 AirportNetwork.atmEsbSwitch.eth[0].queue queueingTime:vector ETV
attr interpolationmode none
attr recordingmode vector
attr source queueingTime(packetPulled)
attr title "queueing times"
attr unit s
vector 114 AirportNetwork.atmEsbSwitch.eth[0].queue outgoingPacketLengths:vector ETV
attr interpolationmode none
attr recordingmode vector
attr source packetLength(packetPulled)
attr title "outgoing packet lengths"
attr unit b
vector 115 AirportNetwork.atmEsbSwitch.eth[0].mac packetReceivedFromUpper:vector(packetBytes) ETV
attr interpolationmode none
attr recordingmode vector(packetBytes)
attr source packetReceivedFromUpper
attr title "packet bytes from higher layer, packetBytes"
vector 116 AirportNetwork.atmEsbSwitch.eth[0].queue queueLength:vector ETV
attr autoWarmupFilter false
attr interpolationmode sample-hold
attr recordingmode vector
attr source "warmup(atomic(constant0(packetPushEnded) + count(packetPushStarted) - count(packetPulled) - count(packetRemoved) - count(packetDropped)))"
attr title "queue length"
attr unit pk
vector 117 AirportNetwork.atmEsbSwitch.eth[0].queue queueBitLength:vector ETV
attr autoWarmupFilter false
attr interpolationmode sample-hold
attr recordingmode vector
attr source "warmup(atomic(constant0(packetPushEnded) + sum(packetLength(packetPushStarted)) - sum(packetLength(packetPulled)) - sum(packetLength(packetRemoved)) - sum(packetLength(packetDropped))))"
attr title "queue bit length"
attr unit b
vector 118 AirportNetwork.atmEsbSwitch.eth[2].queue incomingPacketLengths:vector ETV
attr interpolationmode none
attr recordingmode vector
attr source packetLength(packetPushStarted)
attr title "incoming packet lengths"
attr unit b
vector 119 AirportNetwork.atmEsbSwitch.eth[2].queue queueingTime:vector ETV
attr interpolationmode none
attr recordingmode vector
attr source queueingTime(packetPulled)
attr title "queueing times"
attr unit s
vector 120 AirportNetwork.atmEsbSwitch.eth[2].queue outgoingPacketLengths:vector ETV
attr interpolationmode none
attr recordingmode vector
attr source packetLength(packetPulled)
attr title "outgoing packet lengths"
attr unit b
vector 121 AirportNetwork.atmEsbSwitch.eth[2].mac packetReceivedFromUpper:vector(packetBytes) ETV
attr interpolationmode none
attr recordingmode vector(packetBytes)
attr source packetReceivedFromUpper
attr title "packet bytes from higher layer, packetBytes"
vector 122 AirportNetwork.atmEsbSwitch.eth[2].queue queueLength:vector ETV
attr autoWarmupFilter false
attr interpolationmode sample-hold
attr recordingmode vector
attr source "warmup(atomic(constant0(packetPushEnded) + count(packetPushStarted) - count(packetPulled) - count(packetRemoved) - count(packetDropped)))"
attr title "queue length"
attr unit pk
vector 123 AirportNetwork.atmEsbSwitch.eth[2].queue queueBitLength:vector ETV
attr autoWarmupFilter false
attr interpolationmode sample-hold
attr recordingmode vector
attr source "warmup(atomic(constant0(packetPushEnded) + sum(packetLength(packetPushStarted)) - sum(packetLength(packetPulled)) - sum(packetLength(packetRemoved)) - sum(packetLength(packetDropped))))"
attr title "queue bit length"
attr unit b
vector 124 AirportNetwork.atmEsbSwitch.eth[3].queue incomingPacketLengths:vector ETV
attr interpolationmode none
attr recordingmode vector
attr source packetLength(packetPushStarted)
attr title "incoming packet lengths"
attr unit b
vector 125 AirportNetwork.atmEsbSwitch.eth[3].queue queueingTime:vector ETV
attr interpolationmode none
attr recordingmode vector
attr source queueingTime(packetPulled)
attr title "queueing times"
attr unit s
vector 126 AirportNetwork.atmEsbSwitch.eth[3].queue outgoingPacketLengths:vector ETV
attr interpolationmode none
attr recordingmode vector
attr source packetLength(packetPulled)
attr title "outgoing packet lengths"
attr unit b
vector 127 AirportNetwork.atmEsbSwitch.eth[3].mac packetReceivedFromUpper:vector(packetBytes) ETV
attr interpolationmode none
attr recordingmode vector(packetBytes)
attr source packetReceivedFromUpper
attr title "packet bytes from higher layer, packetBytes"
vector 128 AirportNetwork.atmEsbSwitch.eth[3].queue queueLength:vector ETV
attr autoWarmupFilter false
attr interpolationmode sample-hold
attr recordingmode vector
attr source "warmup(atomic(constant0(packetPushEnded) + count(packetPushStarted) - count(packetPulled) - count(packetRemoved) - count(packetDropped)))"
attr title "queue length"
attr unit pk
vector 129 AirportNetwork.atmEsbSwitch.eth[3].queue queueBitLength:vector ETV
attr autoWarmupFilter false
attr interpolationmode sample-hold
attr recordingmode vector
attr source "warmup(atomic(constant0(packetPushEnded) + sum(packetLength(packetPushStarted)) - sum(packetLength(packetPulled)) - sum(packetLength(packetRemoved)) - sum(packetLength(packetDropped))))"
attr title "queue bit length"
attr unit b
vector 130 AirportNetwork.atmSawSwitch.eth[0].mac txPk:vector(packetBytes) ETV
attr interpolationmode none
attr recordingmode vector(packetBytes)
attr source packetSentToLower
attr title "packets transmitted, packetBytes"
vector 131 AirportNetwork.atmEsbSwitch.eth[0].mac txPk:vector(packetBytes) ETV
attr interpolationmode none
attr recordingmode vector(packetBytes)
attr source packetSentToLower
attr title "packets transmitted, packetBytes"
vector 132 AirportNetwork.atmSawRouter.eth[1].mac rxPkOk:vector(packetBytes) ETV
attr interpolationmode none
attr recordingmode vector(packetBytes)
attr source rxPkOk
attr title "packets received OK, packetBytes"
vector 133 AirportNetwork.atmSawRouter.eth[1].mac passedUpPk:vector(packetBytes) ETV
attr interpolationmode none
attr recordingmode vector(packetBytes)
attr source packetSentToUpper
attr title "packets passed to higher layer, packetBytes"
vector 134 AirportNetwork.atmEsbRouter.eth[1].mac rxPkOk:vector(packetBytes) ETV
attr interpolationmode none
attr recordingmode vector(packetBytes)
attr source rxPkOk
attr title "packets received OK, packetBytes"
vector 135 AirportNetwork.atmEsbRouter.eth[1].mac passedUpPk:vector(packetBytes) ETV
attr interpolationmode none
attr recordingmode vector(packetBytes)
attr source packetSentToUpper
attr title "packets passed to higher layer, packetBytes"
vector 136 AirportNetwork.atmSawRouter.ethernet decapPk:vector(packetBytes) ETV
attr interpolationmode none
attr recordingmode vector(packetBytes)
attr source decapPk
attr title "packets decapsulated, packetBytes"
vector 137 AirportNetwork.atmEsbRouter.ethernet decapPk:vector(packetBytes) ETV
attr interpolationmode none
attr recordingmode vector(packetBytes)
attr source decapPk
attr title "packets decapsulated, packetBytes"
vector 138 AirportNetwork.atmSawRouter.ethernet encapPk:vector(packetBytes) ETV
attr interpolationmode none
attr recordingmode vector(packetBytes)
attr source encapPk
attr title "packets encapsulated, packetBytes"
vector 139 AirportNetwork.atmEsbRouter.ethernet encapPk:vector(packetBytes) ETV
attr interpolationmode none
attr recordingmode vector(packetBytes)
attr source encapPk
attr title "packets encapsulated, packetBytes"
vector 140 AirportNetwork.atmSawRouter.eth[0].queue incomingPacketLengths:vector ETV
attr interpolationmode none
attr recordingmode vector
attr source packetLength(packetPushStarted)
attr title "incoming packet lengths"
attr unit b
vector 141 AirportNetwork.atmSawRouter.eth[0].queue queueingTime:vector ETV
attr interpolationmode none
attr recordingmode vector
attr source queueingTime(packetPulled)
attr title "queueing times"
attr unit s
vector 142 AirportNetwork.atmSawRouter.eth[0].queue outgoingPacketLengths:vector ETV
attr interpolationmode none
attr recordingmode vector
attr source packetLength(packetPulled)
attr title "outgoing packet lengths"
attr unit b
vector 143 AirportNetwork.atmSawRouter.eth[0].mac packetReceivedFromUpper:vector(packetBytes) ETV
attr interpolationmode none
attr recordingmode vector(packetBytes)
attr source packetReceivedFromUpper
attr title "packet bytes from higher layer, packetBytes"
vector 144 AirportNetwork.atmSawRouter.eth[0].queue queueLength:vector ETV
attr autoWarmupFilter false
attr interpolationmode sample-hold
attr recordingmode vector
attr source "warmup(atomic(constant0(packetPushEnded) + count(packetPushStarted) - count(packetPulled) - count(packetRemoved) - count(packetDropped)))"
attr title "queue length"
attr unit pk
vector 145 AirportNetwork.atmSawRouter.eth[0].queue queueBitLength:vector ETV
attr autoWarmupFilter false
attr interpolationmode sample-hold
attr recordingmode vector
attr source "warmup(atomic(constant0(packetPushEnded) + sum(packetLength(packetPushStarted)) - sum(packetLength(packetPulled)) - sum(packetLength(packetRemoved)) - sum(packetLength(packetDropped))))"
attr title "queue bit length"
attr unit b
vector 146 AirportNetwork.atmEsbRouter.eth[0].queue incomingPacketLengths:vector ETV
attr interpolationmode none
attr recordingmode vector
attr source packetLength(packetPushStarted)
attr title "incoming packet lengths"
attr unit b
vector 147 AirportNetwork.atmEsbRouter.eth[0].queue queueingTime:vector ETV
attr interpolationmode none
attr recordingmode vector
attr source queueingTime(packetPulled)
attr title "queueing times"
attr unit s
vector 148 AirportNetwork.atmEsbRouter.eth[0].queue outgoingPacketLengths:vector ETV
attr interpolationmode none
attr recordingmode vector
attr source packetLength(packetPulled)
attr title "outgoing packet lengths"
attr unit b
vector 149 AirportNetwork.atmEsbRouter.eth[0].mac packetReceivedFromUpper:vector(packetBytes) ETV
attr interpolationmode none
attr recordingmode vector(packetBytes)
attr source packetReceivedFromUpper
attr title "packet bytes from higher layer, packetBytes"
vector 150 AirportNetwork.atmEsbRouter.eth[0].queue queueLength:vector ETV
attr autoWarmupFilter false
attr interpolationmode sample-hold
attr recordingmode vector
attr source "warmup(atomic(constant0(packetPushEnded) + count(packetPushStarted) - count(packetPulled) - count(packetRemoved) - count(packetDropped)))"
attr title "queue length"
attr unit pk
vector 151 AirportNetwork.atmEsbRouter.eth[0].queue queueBitLength:vector ETV
attr autoWarmupFilter false
attr interpolationmode sample-hold
attr recordingmode vector
attr source "warmup(atomic(constant0(packetPushEnded) + sum(packetLength(packetPushStarted)) - sum(packetLength(packetPulled)) - sum(packetLength(packetRemoved)) - sum(packetLength(packetDropped))))"
attr title "queue bit length"
attr unit b
vector 152 AirportNetwork.atmSawRouter.eth[0].mac txPk:vector(packetBytes) ETV
attr interpolationmode none
attr recordingmode vector(packetBytes)
attr source packetSentToLower
attr title "packets transmitted, packetBytes"
vector 153 AirportNetwork.atmEsbRouter.eth[0].mac txPk:vector(packetBytes) ETV
attr interpolationmode none
attr recordingmode vector(packetBytes)
attr source packetSentToLower
attr title "packets transmitted, packetBytes"
vector 154 AirportNetwork.istAreaRouter.eth[2].mac rxPkOk:vector(packetBytes) ETV
attr interpolationmode none
attr recordingmode vector(packetBytes)
attr source rxPkOk
attr title "packets received OK, packetBytes"
vector 155 AirportNetwork.istAreaRouter.eth[2].mac passedUpPk:vector(packetBytes) ETV
attr interpolationmode none
attr recordingmode vector(packetBytes)
attr source packetSentToUpper
attr title "packets passed to higher layer, packetBytes"
vector 156 AirportNetwork.ankAreaRouter.eth[2].mac rxPkOk:vector(packetBytes) ETV
attr interpolationmode none
attr recordingmode vector(packetBytes)
attr source rxPkOk
attr title "packets received OK, packetBytes"
vector 157 AirportNetwork.ankAreaRouter.eth[2].mac passedUpPk:vector(packetBytes) ETV
attr interpolationmode none
attr recordingmode vector(packetBytes)
attr source packetSentToUpper
attr title "packets passed to higher layer, packetBytes"
vector 158 AirportNetwork.istAreaRouter.ethernet decapPk:vector(packetBytes) ETV
attr interpolationmode none
attr recordingmode vector(packetBytes)
attr source decapPk
attr title "packets decapsulated, packetBytes"
vector 159 AirportNetwork.ankAreaRouter.ethernet decapPk:vector(packetBytes) ETV
attr interpolationmode none
attr recordingmode vector(packetBytes)
attr source decapPk
attr title "packets decapsulated, packetBytes"
vector 160 AirportNetwork.istAreaRouter.ethernet encapPk:vector(packetBytes) ETV
attr interpolationmode none
attr recordingmode vector(packetBytes)
attr source encapPk
attr title "packets encapsulated, packetBytes"
vector 161 AirportNetwork.ankAreaRouter.ethernet encapPk:vector(packetBytes) ETV
attr interpolationmode none
attr recordingmode vector(packetBytes)
attr source encapPk
attr title "packets encapsulated, packetBytes"
vector 162 AirportNetwork.istAreaRouter.eth[1].queue incomingPacketLengths:vector ETV
attr interpolationmode none
attr recordingmode vector
attr source packetLength(packetPushStarted)
attr title "incoming packet lengths"
attr unit b
vector 163 AirportNetwork.istAreaRouter.eth[1].queue queueingTime:vector ETV
attr interpolationmode none
attr recordingmode vector
attr source queueingTime(packetPulled)
attr title "queueing times"
attr unit s
vector 164 AirportNetwork.istAreaRouter.eth[1].queue outgoingPacketLengths:vector ETV
attr interpolationmode none
attr recordingmode vector
attr source packetLength(packetPulled)
attr title "outgoing packet lengths"
attr unit b
vector 165 AirportNetwork.istAreaRouter.eth[1].mac packetReceivedFromUpper:vector(packetBytes) ETV
attr interpolationmode none
attr recordingmode vector(packetBytes)
attr source packetReceivedFromUpper
attr title "packet bytes from higher layer, packetBytes"
vector 166 AirportNetwork.istAreaRouter.eth[1].queue queueLength:vector ETV
attr autoWarmupFilter false
attr interpolationmode sample-hold
attr recordingmode vector
attr source "warmup(atomic(constant0(packetPushEnded) + count(packetPushStarted) - count(packetPulled) - count(packetRemoved) - count(packetDropped)))"
attr title "queue length"
attr unit pk
vector 167 AirportNetwork.istAreaRouter.eth[1].queue queueBitLength:vector ETV
attr autoWarmupFilter false
attr interpolationmode sample-hold
attr recordingmode vector
attr source "warmup(atomic(constant0(packetPushEnded) + sum(packetLength(packetPushStarted)) - sum(packetLength(packetPulled)) - sum(packetLength(packetRemoved)) - sum(packetLength(packetDropped))))"
attr title "queue bit length"
attr unit b
vector 168 AirportNetwork.ankAreaRouter.eth[1].queue incomingPacketLengths:vector ETV
attr interpolationmode none
attr recordingmode vector
attr source packetLength(packetPushStarted)
attr title "incoming packet lengths"
attr unit b
vector 169 AirportNetwork.ankAreaRouter.eth[1].queue queueingTime:vector ETV
attr interpolationmode none
attr recordingmode vector
attr source queueingTime(packetPulled)
attr title "queueing times"
attr unit s
vector 170 AirportNetwork.ankAreaRouter.eth[1].queue outgoingPacketLengths:vector ETV
attr interpolationmode none
attr recordingmode vector
attr source packetLength(packetPulled)
attr title "outgoing packet lengths"
attr unit b
vector 171 AirportNetwork.ankAreaRouter.eth[1].mac packetReceivedFromUpper:vector(packetBytes) ETV
attr interpolationmode none
attr recordingmode vector(packetBytes)
attr source packetReceivedFromUpper
attr title "packet bytes from higher layer, packetBytes"
vector 172 AirportNetwork.ankAreaRouter.eth[1].queue queueLength:vector ETV
attr autoWarmupFilter false
attr interpolationmode sample-hold
attr recordingmode vector
attr source "warmup(atomic(constant0(packetPushEnded) + count(packetPushStarted) - count(packetPulled) - count(packetRemoved) - count(packetDropped)))"
attr title "queue length"
attr unit pk
vector 173 AirportNetwork.ankAreaRouter.eth[1].queue queueBitLength:vector ETV
attr autoWarmupFilter false
attr interpolationmode sample-hold
attr recordingmode vector
attr source "warmup(atomic(constant0(packetPushEnded) + sum(packetLength(packetPushStarted)) - sum(packetLength(packetPulled)) - sum(packetLength(packetRemoved)) - sum(packetLength(packetDropped))))"
attr title "queue bit length"
attr unit b
vector 174 AirportNetwork.istAreaRouter.eth[1].mac txPk:vector(packetBytes) ETV
attr interpolationmode none
attr recordingmode vector(packetBytes)
attr source packetSentToLower
attr title "packets transmitted, packetBytes"
vector 175 AirportNetwork.ankAreaRouter.eth[1].mac txPk:vector(packetBytes) ETV
attr interpolationmode none
attr recordingmode vector(packetBytes)
attr source packetSentToLower
attr title "packets transmitted, packetBytes"
vector 176 AirportNetwork.istAreaAgent.eth[0].mac rxPkOk:vector(packetBytes) ETV
attr interpolationmode none
attr recordingmode vector(packetBytes)
attr source rxPkOk
attr title "packets received OK, packetBytes"
vector 177 AirportNetwork.istAreaAgent.eth[0].mac passedUpPk:vector(packetBytes) ETV
attr interpolationmode none
attr recordingmode vector(packetBytes)
attr source packetSentToUpper
attr title "packets passed to higher layer, packetBytes"
vector 178 AirportNetwork.ankAreaAgent.eth[0].mac rxPkOk:vector(packetBytes) ETV
attr interpolationmode none
attr recordingmode vector(packetBytes)
attr source rxPkOk
attr title "packets received OK, packetBytes"
vector 179 AirportNetwork.ankAreaAgent.eth[0].mac passedUpPk:vector(packetBytes) ETV
attr interpolationmode none
attr recordingmode vector(packetBytes)
attr source packetSentToUpper
attr title "packets passed to higher layer, packetBytes"
vector 180 AirportNetwork.istAreaAgent.ethernet decapPk:vector(packetBytes) ETV
attr interpolationmode none
attr recordingmode vector(packetBytes)
attr source decapPk
attr title "packets decapsulated, packetBytes"
vector 181 AirportNetwork.ankAreaAgent.ethernet decapPk:vector(packetBytes) ETV
attr interpolationmode none
attr recordingmode vector(packetBytes)
attr source decapPk
attr title "packets decapsulated, packetBytes"
vector 182 AirportNetwork.istAreaAgent.tcp.conn-0 rcvSeq:vector ETV
attr interpolationmode sample-hold
attr recordingmode vector
vector 183 AirportNetwork.istAreaAgent.tcp.conn-0 rcvAck:vector ETV
attr interpolationmode sample-hold
attr recordingmode vector
vector 184 AirportNetwork.istAreaAgent.tcp.conn-0 tcpRcvPayloadBytes:vector ETV
attr interpolationmode sample-hold
attr recordingmode vector
vector 185 AirportNetwork.istAreaAgent.tcp.conn-10 rcvAdv:vector ETV
attr interpolationmode sample-hold
attr recordingmode vector
vector 186 AirportNetwork.istAreaAgent.tcp.conn-10 sndWnd:vector ETV
attr interpolationmode sample-hold
attr recordingmode vector
vector 187 AirportNetwork.istAreaAgent.tcp.conn-10 tcpRcvQueueBytes:vector ETV
attr interpolationmode sample-hold
attr recordingmode vector
vector 188 AirportNetwork.istAreaAgent.tcp.conn-10 rcvWnd:vector ETV
attr interpolationmode sample-hold
attr recordingmode vector
vector 189 AirportNetwork.istAreaAgent.tcp.conn-10 sndAck:vector ETV
attr interpolationmode sample-hold
attr recordingmode vector
vector 190 AirportNetwork.ankAreaAgent.tcp.conn-1 rcvSeq:vector ETV
attr interpolationmode sample-hold
attr recordingmode vector
vector 191 AirportNetwork.ankAreaAgent.tcp.conn-1 rcvAck:vector ETV
attr interpolationmode sample-hold
attr recordingmode vector
vector 192 AirportNetwork.ankAreaAgent.tcp.conn-1 tcpRcvPayloadBytes:vector ETV
attr interpolationmode sample-hold
attr recordingmode vector
vector 193 AirportNetwork.ankAreaAgent.tcp.conn-11 rcvAdv:vector ETV
attr interpolationmode sample-hold
attr recordingmode vector
vector 194 AirportNetwork.ankAreaAgent.tcp.conn-11 sndWnd:vector ETV
attr interpolationmode sample-hold
attr recordingmode vector
vector 195 AirportNetwork.ankAreaAgent.tcp.conn-11 tcpRcvQueueBytes:vector ETV
attr interpolationmode sample-hold
attr recordingmode vector
vector 196 AirportNetwork.ankAreaAgent.tcp.conn-11 rcvWnd:vector ETV
attr interpolationmode sample-hold
attr recordingmode vector
vector 197 AirportNetwork.ankAreaAgent.tcp.conn-11 sndAck:vector ETV
attr interpolationmode sample-hold
attr recordingmode vector
vector 198 AirportNetwork.istAreaAgent.ethernet encapPk:vector(packetBytes) ETV
attr interpolationmode none
attr recordingmode vector(packetBytes)
attr source encapPk
attr title "packets encapsulated, packetBytes"
vector 199 AirportNetwork.ankAreaAgent.ethernet encapPk:vector(packetBytes) ETV
attr interpolationmode none
attr recordingmode vector(packetBytes)
attr source encapPk
attr title "packets encapsulated, packetBytes"
vector 200 AirportNetwork.istAreaAgent.eth[0].queue incomingPacketLengths:vector ETV
attr interpolationmode none
attr recordingmode vector
attr source packetLength(packetPushStarted)
attr title "incoming packet lengths"
attr unit b
vector 201 AirportNetwork.istAreaAgent.eth[0].queue queueingTime:vector ETV
attr interpolationmode none
attr recordingmode vector
attr source queueingTime(packetPulled)
attr title "queueing times"
attr unit s
vector 202 AirportNetwork.istAreaAgent.eth[0].queue outgoingPacketLengths:vector ETV
attr interpolationmode none
attr recordingmode vector
attr source packetLength(packetPulled)
attr title "outgoing packet lengths"
attr unit b
vector 203 AirportNetwork.istAreaAgent.eth[0].mac packetReceivedFromUpper:vector(packetBytes) ETV
attr interpolationmode none
attr recordingmode vector(packetBytes)
attr source packetReceivedFromUpper
attr title "packet bytes from higher layer, packetBytes"
vector 204 AirportNetwork.istAreaAgent.eth[0].queue queueLength:vector ETV
attr autoWarmupFilter false
attr interpolationmode sample-hold
attr recordingmode vector
attr source "warmup(atomic(constant0(packetPushEnded) + count(packetPushStarted) - count(packetPulled) - count(packetRemoved) - count(packetDropped)))"
attr title "queue length"
attr unit pk
vector 205 AirportNetwork.istAreaAgent.eth[0].queue queueBitLength:vector ETV
attr autoWarmupFilter false
attr interpolationmode sample-hold
attr recordingmode vector
attr source "warmup(atomic(constant0(packetPushEnded) + sum(packetLength(packetPushStarted)) - sum(packetLength(packetPulled)) - sum(packetLength(packetRemoved)) - sum(packetLength(packetDropped))))"
attr title "queue bit length"
attr unit b
vector 206 AirportNetwork.ankAreaAgent.eth[0].queue incomingPacketLengths:vector ETV
attr interpolationmode none
attr recordingmode vector
attr source packetLength(packetPushStarted)
attr title "incoming packet lengths"
attr unit b
vector 207 AirportNetwork.ankAreaAgent.eth[0].queue queueingTime:vector ETV
attr interpolationmode none
attr recordingmode vector
attr source queueingTime(packetPulled)
attr title "queueing times"
attr unit s
vector 208 AirportNetwork.ankAreaAgent.eth[0].queue outgoingPacketLengths:vector ETV
attr interpolationmode none
attr recordingmode vector
attr source packetLength(packetPulled)
attr title "outgoing packet lengths"
attr unit b
vector 209 AirportNetwork.ankAreaAgent.eth[0].mac packetReceivedFromUpper:vector(packetBytes) ETV
attr interpolationmode none
attr recordingmode vector(packetBytes)
attr source packetReceivedFromUpper
attr title "packet bytes from higher layer, packetBytes"
vector 210 AirportNetwork.ankAreaAgent.eth[0].queue queueLength:vector ETV
attr autoWarmupFilter false
attr interpolationmode sample-hold
attr recordingmode vector
attr source "warmup(atomic(constant0(packetPushEnded) + count(packetPushStarted) - count(packetPulled) - count(packetRemoved) - count(packetDropped)))"
attr title "queue length"
attr unit pk
vector 211 AirportNetwork.ankAreaAgent.eth[0].queue queueBitLength:vector ETV
attr autoWarmupFilter false
attr interpolationmode sample-hold
attr recordingmode vector
attr source "warmup(atomic(constant0(packetPushEnded) + sum(packetLength(packetPushStarted)) - sum(packetLength(packetPulled)) - sum(packetLength(packetRemoved)) - sum(packetLength(packetDropped))))"
attr title "queue bit length"
attr unit b
vector 212 AirportNetwork.istAreaAgent.eth[0].mac txPk:vector(packetBytes) ETV
attr interpolationmode none
attr recordingmode vector(packetBytes)
attr source packetSentToLower
attr title "packets transmitted, packetBytes"
vector 213 AirportNetwork.ankAreaAgent.eth[0].mac txPk:vector(packetBytes) ETV
attr interpolationmode none
attr recordingmode vector(packetBytes)
attr source packetSentToLower
attr title "packets transmitted, packetBytes"
vector 214 AirportNetwork.istAreaRouter.eth[1].mac rxPkOk:vector(packetBytes) ETV
attr interpolationmode none
attr recordingmode vector(packetBytes)
attr source rxPkOk
attr title "packets received OK, packetBytes"
vector 215 AirportNetwork.istAreaRouter.eth[1].mac passedUpPk:vector(packetBytes) ETV
attr interpolationmode none
attr recordingmode vector(packetBytes)
attr source packetSentToUpper
attr title "packets passed to higher layer, packetBytes"
vector 216 AirportNetwork.ankAreaRouter.eth[1].mac rxPkOk:vector(packetBytes) ETV
attr interpolationmode none
attr recordingmode vector(packetBytes)
attr source rxPkOk
attr title "packets received OK, packetBytes"
vector 217 AirportNetwork.ankAreaRouter.eth[1].mac passedUpPk:vector(packetBytes) ETV
attr interpolationmode none
attr recordingmode vector(packetBytes)
attr source packetSentToUpper
attr title "packets passed to higher layer, packetBytes"
vector 218 AirportNetwork.istAreaRouter.eth[2].queue incomingPacketLengths:vector ETV
attr interpolationmode none
attr recordingmode vector
attr source packetLength(packetPushStarted)
attr title "incoming packet lengths"
attr unit b
vector 219 AirportNetwork.istAreaRouter.eth[2].queue queueingTime:vector ETV
attr interpolationmode none
attr recordingmode vector
attr source queueingTime(packetPulled)
attr title "queueing times"
attr unit s
vector 220 AirportNetwork.istAreaRouter.eth[2].queue outgoingPacketLengths:vector ETV
attr interpolationmode none
attr recordingmode vector
attr source packetLength(packetPulled)
attr title "outgoing packet lengths"
attr unit b
vector 221 AirportNetwork.istAreaRouter.eth[2].mac packetReceivedFromUpper:vector(packetBytes) ETV
attr interpolationmode none
attr recordingmode vector(packetBytes)
attr source packetReceivedFromUpper
attr title "packet bytes from higher layer, packetBytes"
vector 222 AirportNetwork.istAreaRouter.eth[2].queue queueLength:vector ETV
attr autoWarmupFilter false
attr interpolationmode sample-hold
attr recordingmode vector
attr source "warmup(atomic(constant0(packetPushEnded) + count(packetPushStarted) - count(packetPulled) - count(packetRemoved) - count(packetDropped)))"
attr title "queue length"
attr unit pk
vector 223 AirportNetwork.istAreaRouter.eth[2].queue queueBitLength:vector ETV
attr autoWarmupFilter false
attr interpolationmode sample-hold
attr recordingmode vector
attr source "warmup(atomic(constant0(packetPushEnded) + sum(packetLength(packetPushStarted)) - sum(packetLength(packetPulled)) - sum(packetLength(packetRemoved)) - sum(packetLength(packetDropped))))"
attr title "queue bit length"
attr unit b
vector 224 AirportNetwork.ankAreaRouter.eth[2].queue incomingPacketLengths:vector ETV
attr interpolationmode none
attr recordingmode vector
attr source packetLength(packetPushStarted)
attr title "incoming packet lengths"
attr unit b
vector 225 AirportNetwork.ankAreaRouter.eth[2].queue queueingTime:vector ETV
attr interpolationmode none
attr recordingmode vector
attr source queueingTime(packetPulled)
attr title "queueing times"
attr unit s
vector 226 AirportNetwork.ankAreaRouter.eth[2].queue outgoingPacketLengths:vector ETV
attr interpolationmode none
attr recordingmode vector
attr source packetLength(packetPulled)
attr title "outgoing packet lengths"
attr unit b
vector 227 AirportNetwork.ankAreaRouter.eth[2].mac packetReceivedFromUpper:vector(packetBytes) ETV
attr interpolationmode none
attr recordingmode vector(packetBytes)
attr source packetReceivedFromUpper
attr title "packet bytes from higher layer, packetBytes"
vector 228 AirportNetwork.ankAreaRouter.eth[2].queue queueLength:vector ETV
attr autoWarmupFilter false
attr interpolationmode sample-hold
attr recordingmode vector
attr source "warmup(atomic(constant0(packetPushEnded) + count(packetPushStarted) - count(packetPulled) - count(packetRemoved) - count(packetDropped)))"
attr title "queue length"
attr unit pk
vector 229 AirportNetwork.ankAreaRouter.eth[2].queue queueBitLength:vector ETV
attr autoWarmupFilter false
attr interpolationmode sample-hold
attr recordingmode vector
attr source "warmup(atomic(constant0(packetPushEnded) + sum(packetLength(packetPushStarted)) - sum(packetLength(packetPulled)) - sum(packetLength(packetRemoved)) - sum(packetLength(packetDropped))))"
attr title "queue bit length"
attr unit b
vector 230 AirportNetwork.istAreaRouter.eth[2].mac txPk:vector(packetBytes) ETV
attr interpolationmode none
attr recordingmode vector(packetBytes)
attr source packetSentToLower
attr title "packets transmitted, packetBytes"
vector 231 AirportNetwork.ankAreaRouter.eth[2].mac txPk:vector(packetBytes) ETV
attr interpolationmode none
attr recordingmode vector(packetBytes)
attr source packetSentToLower
attr title "packets transmitted, packetBytes"
vector 232 AirportNetwork.atmSawRouter.eth[0].mac rxPkOk:vector(packetBytes) ETV
attr interpolationmode none
attr recordingmode vector(packetBytes)
attr source rxPkOk
attr title "packets received OK, packetBytes"
vector 233 AirportNetwork.atmSawRouter.eth[0].mac passedUpPk:vector(packetBytes) ETV
attr interpolationmode none
attr recordingmode vector(packetBytes)
attr source packetSentToUpper
attr title "packets passed to higher layer, packetBytes"
vector 234 AirportNetwork.atmEsbRouter.eth[0].mac rxPkOk:vector(packetBytes) ETV
attr interpolationmode none
attr recordingmode vector(packetBytes)
attr source rxPkOk
attr title "packets received OK, packetBytes"
vector 235 AirportNetwork.atmEsbRouter.eth[0].mac passedUpPk:vector(packetBytes) ETV
attr interpolationmode none
attr recordingmode vector(packetBytes)
attr source packetSentToUpper
attr title "packets passed to higher layer, packetBytes"
vector 236 AirportNetwork.atmSawRouter.eth[1].queue incomingPacketLengths:vector ETV
attr interpolationmode none
attr recordingmode vector
attr source packetLength(packetPushStarted)
attr title "incoming packet lengths"
attr unit b
vector 237 AirportNetwork.atmSawRouter.eth[1].queue queueingTime:vector ETV
attr interpolationmode none
attr recordingmode vector
attr source queueingTime(packetPulled)
attr title "queueing times"
attr unit s
vector 238 AirportNetwork.atmSawRouter.eth[1].queue outgoingPacketLengths:vector ETV
attr interpolationmode none
attr recordingmode vector
attr source packetLength(packetPulled)
attr title "outgoing packet lengths"
attr unit b
vector 239 AirportNetwork.atmSawRouter.eth[1].mac packetReceivedFromUpper:vector(packetBytes) ETV
attr interpolationmode none
attr recordingmode vector(packetBytes)
attr source packetReceivedFromUpper
attr title "packet bytes from higher layer, packetBytes"
vector 240 AirportNetwork.atmSawRouter.eth[1].queue queueLength:vector ETV
attr autoWarmupFilter false
attr interpolationmode sample-hold
attr recordingmode vector
attr source "warmup(atomic(constant0(packetPushEnded) + count(packetPushStarted) - count(packetPulled) - count(packetRemoved) - count(packetDropped)))"
attr title "queue length"
attr unit pk
vector 241 AirportNetwork.atmSawRouter.eth[1].queue queueBitLength:vector ETV
attr autoWarmupFilter false
attr interpolationmode sample-hold
attr recordingmode vector
attr source "warmup(atomic(constant0(packetPushEnded) + sum(packetLength(packetPushStarted)) - sum(packetLength(packetPulled)) - sum(packetLength(packetRemoved)) - sum(packetLength(packetDropped))))"
attr title "queue bit length"
attr unit b
vector 242 AirportNetwork.atmEsbRouter.eth[1].queue incomingPacketLengths:vector ETV
attr interpolationmode none
attr recordingmode vector
attr source packetLength(packetPushStarted)
attr title "incoming packet lengths"
attr unit b
vector 243 AirportNetwork.atmEsbRouter.eth[1].queue queueingTime:vector ETV
attr interpolationmode none
attr recordingmode vector
attr source queueingTime(packetPulled)
attr title "queueing times"
attr unit s
vector 244 AirportNetwork.atmEsbRouter.eth[1].queue outgoingPacketLengths:vector ETV
attr interpolationmode none
attr recordingmode vector
attr source packetLength(packetPulled)
attr title "outgoing packet lengths"
attr unit b
vector 245 AirportNetwork.atmEsbRouter.eth[1].mac packetReceivedFromUpper:vector(packetBytes) ETV
attr interpolationmode none
attr recordingmode vector(packetBytes)
attr source packetReceivedFromUpper
attr title "packet bytes from higher layer, packetBytes"
vector 246 AirportNetwork.atmEsbRouter.eth[1].queue queueLength:vector ETV
attr autoWarmupFilter false
attr interpolationmode sample-hold
attr recordingmode vector
attr source "warmup(atomic(constant0(packetPushEnded) + count(packetPushStarted) - count(packetPulled) - count(packetRemoved) - count(packetDropped)))"
attr title "queue length"
attr unit pk
vector 247 AirportNetwork.atmEsbRouter.eth[1].queue queueBitLength:vector ETV
attr autoWarmupFilter false
attr interpolationmode sample-hold
attr recordingmode vector
attr source "warmup(atomic(constant0(packetPushEnded) + sum(packetLength(packetPushStarted)) - sum(packetLength(packetPulled)) - sum(packetLength(packetRemoved)) - sum(packetLength(packetDropped))))"
attr title "queue bit length"
attr unit b
vector 248 AirportNetwork.atmSawRouter.eth[1].mac txPk:vector(packetBytes) ETV
attr interpolationmode none
attr recordingmode vector(packetBytes)
attr source packetSentToLower
attr title "packets transmitted, packetBytes"
vector 249 AirportNetwork.atmEsbRouter.eth[1].mac txPk:vector(packetBytes) ETV
attr interpolationmode none
attr recordingmode vector(packetBytes)
attr source packetSentToLower
attr title "packets transmitted, packetBytes"
vector 250 AirportNetwork.atmSawSwitch.eth[0].mac rxPkOk:vector(packetBytes) ETV
attr interpolationmode none
attr recordingmode vector(packetBytes)
attr source rxPkOk
attr title "packets received OK, packetBytes"
vector 251 AirportNetwork.atmSawSwitch.eth[0].mac passedUpPk:vector(packetBytes) ETV
attr interpolationmode none
attr recordingmode vector(packetBytes)
attr source packetSentToUpper
attr title "packets passed to higher layer, packetBytes"
vector 252 AirportNetwork.atmEsbSwitch.eth[0].mac rxPkOk:vector(packetBytes) ETV
attr interpolationmode none
attr recordingmode vector(packetBytes)
attr source rxPkOk
attr title "packets received OK, packetBytes"
vector 253 AirportNetwork.atmEsbSwitch.eth[0].mac passedUpPk:vector(packetBytes) ETV
attr interpolationmode none
attr recordingmode vector(packetBytes)
attr source packetSentToUpper
attr title "packets passed to higher layer, packetBytes"
vector 254 AirportNetwork.atmSawSwitch.eth[3].queue incomingPacketLengths:vector ETV
attr interpolationmode none
attr recordingmode vector
attr source packetLength(packetPushStarted)
attr title "incoming packet lengths"
attr unit b
vector 255 AirportNetwork.atmSawSwitch.eth[3].queue queueingTime:vector ETV
attr interpolationmode none
attr recordingmode vector
attr source queueingTime(packetPulled)
attr title "queueing times"
attr unit s
vector 256 AirportNetwork.atmSawSwitch.eth[3].queue outgoingPacketLengths:vector ETV
attr interpolationmode none
attr recordingmode vector
attr source packetLength(packetPulled)
attr title "outgoing packet lengths"
attr unit b
vector 257 AirportNetwork.atmSawSwitch.eth[3].mac packetReceivedFromUpper:vector(packetBytes) ETV
attr interpolationmode none
attr recordingmode vector(packetBytes)
attr source packetReceivedFromUpper
attr title "packet bytes from higher layer, packetBytes"
vector 258 AirportNetwork.atmSawSwitch.eth[3].queue queueLength:vector ETV
attr autoWarmupFilter false
attr interpolationmode sample-hold
attr recordingmode vector
attr source "warmup(atomic(constant0(packetPushEnded) + count(packetPushStarted) - count(packetPulled) - count(packetRemoved) - count(packetDropped)))"
attr title "queue length"
attr unit pk
vector 259 AirportNetwork.atmSawSwitch.eth[3].queue queueBitLength:vector ETV
attr autoWarmupFilter false
attr interpolationmode sample-hold
attr recordingmode vector
attr source "warmup(atomic(constant0(packetPushEnded) + sum(packetLength(packetPushStarted)) - sum(packetLength(packetPulled)) - sum(packetLength(packetRemoved)) - sum(packetLength(packetDropped))))"
attr title "queue bit length"
attr unit b
vector 260 AirportNetwork.atmEsbSwitch.eth[1].queue incomingPacketLengths:vector ETV
attr interpolationmode none
attr recordingmode vector
attr source packetLength(packetPushStarted)
attr title "incoming packet lengths"
attr unit b
vector 261 AirportNetwork.atmEsbSwitch.eth[1].queue queueingTime:vector ETV
attr interpolationmode none
attr recordingmode vector
attr source queueingTime(packetPulled)
attr title "queueing times"
attr unit s
vector 262 AirportNetwork.atmEsbSwitch.eth[1].queue outgoingPacketLengths:vector ETV
attr interpolationmode none
attr recordingmode vector
attr source packetLength(packetPulled)
attr title "outgoing packet lengths"
attr unit b
vector 263 AirportNetwork.atmEsbSwitch.eth[1].mac packetReceivedFromUpper:vector(packetBytes) ETV
attr interpolationmode none
attr recordingmode vector(packetBytes)
attr source packetReceivedFromUpper
attr title "packet bytes from higher layer, packetBytes"
vector 264 AirportNetwork.atmEsbSwitch.eth[1].queue queueLength:vector ETV
attr autoWarmupFilter false
attr interpolationmode sample-hold
attr recordingmode vector
attr source "warmup(atomic(constant0(packetPushEnded) + count(packetPushStarted) - count(packetPulled) - count(packetRemoved) - count(packetDropped)))"
attr title "queue length"
attr unit pk
vector 265 AirportNetwork.atmEsbSwitch.eth[1].queue queueBitLength:vector ETV
attr autoWarmupFilter false
attr interpolationmode sample-hold
attr recordingmode vector
attr source "warmup(atomic(constant0(packetPushEnded) + sum(packetLength(packetPushStarted)) - sum(packetLength(packetPulled)) - sum(packetLength(packetRemoved)) - sum(packetLength(packetDropped))))"
attr title "queue bit length"
attr unit b
vector 266 AirportNetwork.atmSawSwitch.eth[1].mac txPk:vector(packetBytes) ETV
attr interpolationmode none
attr recordingmode vector(packetBytes)
attr source packetSentToLower
attr title "packets transmitted, packetBytes"
vector 267 AirportNetwork.atmSawSwitch.eth[2].mac txPk:vector(packetBytes) ETV
attr interpolationmode none
attr recordingmode vector(packetBytes)
attr source packetSentToLower
attr title "packets transmitted, packetBytes"
vector 268 AirportNetwork.atmEsbSwitch.eth[2].mac txPk:vector(packetBytes) ETV
attr interpolationmode none
attr recordingmode vector(packetBytes)
attr source packetSentToLower
attr title "packets transmitted, packetBytes"
vector 269 AirportNetwork.atmEsbSwitch.eth[3].mac txPk:vector(packetBytes) ETV
attr interpolationmode none
attr recordingmode vector(packetBytes)
attr source packetSentToLower
attr title "packets transmitted, packetBytes"
vector 270 AirportNetwork.sawDelivery.eth[0].mac packetDropNotAddressedToUs:vector(packetBytes) ETV
attr interpolationmode none
attr recordingmode vector(packetBytes)
attr source packetDropReasonIsNotAddressedToUs(packetDropped)
attr title "packet drop: not addressed to us, packetBytes"
vector 271 AirportNetwork.sawGround.eth[0].mac packetDropNotAddressedToUs:vector(packetBytes) ETV
attr interpolationmode none
attr recordingmode vector(packetBytes)
attr source packetDropReasonIsNotAddressedToUs(packetDropped)
attr title "packet drop: not addressed to us, packetBytes"
vector 272 AirportNetwork.esbDelivery.eth[0].mac packetDropNotAddressedToUs:vector(packetBytes) ETV
attr interpolationmode none
attr recordingmode vector(packetBytes)
attr source packetDropReasonIsNotAddressedToUs(packetDropped)
attr title "packet drop: not addressed to us, packetBytes"
vector 273 AirportNetwork.esbGround.eth[0].mac packetDropNotAddressedToUs:vector(packetBytes) ETV
attr interpolationmode none
attr recordingmode vector(packetBytes)
attr source packetDropReasonIsNotAddressedToUs(packetDropped)
attr title "packet drop: not addressed to us, packetBytes"
vector 274 AirportNetwork.atmSawSwitch.eth[3].mac txPk:vector(packetBytes) ETV
attr interpolationmode none
attr recordingmode vector(packetBytes)
attr source packetSentToLower
attr title "packets transmitted, packetBytes"
vector 275 AirportNetwork.atmEsbSwitch.eth[1].mac txPk:vector(packetBytes) ETV
attr interpolationmode none
attr recordingmode vector(packetBytes)
attr source packetSentToLower
attr title "packets transmitted, packetBytes"
vector 276 AirportNetwork.sawTower.eth[0].mac rxPkOk:vector(packetBytes) ETV
attr interpolationmode none
attr recordingmode vector(packetBytes)
attr source rxPkOk
attr title "packets received OK, packetBytes"
vector 277 AirportNetwork.sawTower.eth[0].mac passedUpPk:vector(packetBytes) ETV
attr interpolationmode none
attr recordingmode vector(packetBytes)
attr source packetSentToUpper
attr title "packets passed to higher layer, packetBytes"
vector 278 AirportNetwork.esbTower.eth[0].mac rxPkOk:vector(packetBytes) ETV
attr interpolationmode none
attr recordingmode vector(packetBytes)
attr source rxPkOk
attr title "packets received OK, packetBytes"
vector 279 AirportNetwork.esbTower.eth[0].mac passedUpPk:vector(packetBytes) ETV
attr interpolationmode none
attr recordingmode vector(packetBytes)
attr source packetSentToUpper
attr title "packets passed to higher layer, packetBytes"
vector 280 AirportNetwork.sawTower.ethernet decapPk:vector(packetBytes) ETV
attr interpolationmode none
attr recordingmode vector(packetBytes)
attr source decapPk
attr title "packets decapsulated, packetBytes"
vector 281 AirportNetwork.esbTower.ethernet decapPk:vector(packetBytes) ETV
attr interpolationmode none
attr recordingmode vector(packetBytes)
attr source decapPk
attr title "packets decapsulated, packetBytes"
vector 282 AirportNetwork.sawTower.tcp.conn-8 rcvSeq:vector ETV
attr interpolationmode sample-hold
attr recordingmode vector
vector 283 AirportNetwork.sawTower.tcp.conn-8 rcvAck:vector ETV
attr interpolationmode sample-hold
attr recordingmode vector
vector 284 AirportNetwork.sawTower.tcp.conn-8 tcpRcvPayloadBytes:vector ETV
attr interpolationmode sample-hold
attr recordingmode vector
vector 285 AirportNetwork.sawTower.tcp.conn-8 sndWnd:vector ETV
attr interpolationmode sample-hold
attr recordingmode vector
vector 286 AirportNetwork.esbTower.tcp.conn-9 rcvSeq:vector ETV
attr interpolationmode sample-hold
attr recordingmode vector
vector 287 AirportNetwork.esbTower.tcp.conn-9 rcvAck:vector ETV
attr interpolationmode sample-hold
attr recordingmode vector
vector 288 AirportNetwork.esbTower.tcp.conn-9 tcpRcvPayloadBytes:vector ETV
attr interpolationmode sample-hold
attr recordingmode vector
vector 289 AirportNetwork.esbTower.tcp.conn-9 sndWnd:vector ETV
attr interpolationmode sample-hold
attr recordingmode vector
vector 290 AirportNetwork.sawTower.app[0] packetSent:vector(packetBytes) ETV
attr interpolationmode none
attr recordingmode vector(packetBytes)
attr source packetSent
attr title "packets sent, packetBytes"
vector 291 AirportNetwork.esbTower.app[0] packetSent:vector(packetBytes) ETV
attr interpolationmode none
attr recordingmode vector(packetBytes)
attr source packetSent
attr title "packets sent, packetBytes"
vector 292 AirportNetwork.sawTower.tcp.conn-8 sndNxt:vector ETV
attr interpolationmode sample-hold
attr recordingmode vector
vector 293 AirportNetwork.sawTower.tcp.conn-8 unacked:vector ETV
attr interpolationmode sample-hold
attr recordingmode vector
vector 294 AirportNetwork.esbTower.tcp.conn-9 sndNxt:vector ETV
attr interpolationmode sample-hold
attr recordingmode vector
vector 295 AirportNetwork.esbTower.tcp.conn-9 unacked:vector ETV
attr interpolationmode sample-hold
attr recordingmode vector
vector 296 AirportNetwork.istAreaAgent.tcp.conn-10 rcvSeq:vector ETV
attr interpolationmode sample-hold
attr recordingmode vector
vector 297 AirportNetwork.istAreaAgent.tcp.conn-10 rcvAck:vector ETV
attr interpolationmode sample-hold
attr recordingmode vector
vector 298 AirportNetwork.istAreaAgent.tcp.conn-10 tcpRcvPayloadBytes:vector ETV
attr interpolationmode sample-hold
attr recordingmode vector
vector 299 AirportNetwork.istAreaAgent.tcp.conn-10 unacked:vector ETV
attr interpolationmode sample-hold
attr recordingmode vector
vector 300 AirportNetwork.ankAreaAgent.tcp.conn-11 rcvSeq:vector ETV
attr interpolationmode sample-hold
attr recordingmode vector
vector 301 AirportNetwork.ankAreaAgent.tcp.conn-11 rcvAck:vector ETV
attr interpolationmode sample-hold
attr recordingmode vector
vector 302 AirportNetwork.ankAreaAgent.tcp.conn-11 tcpRcvPayloadBytes:vector ETV
attr interpolationmode sample-hold
attr recordingmode vector
vector 303 AirportNetwork.ankAreaAgent.tcp.conn-11 unacked:vector ETV
attr interpolationmode sample-hold
attr recordingmode vector
vector 304 AirportNetwork.istAreaAgent.tcp.conn-10 dupAcks:vector ETV
attr interpolationmode sample-hold
attr recordingmode vector
vector 305 AirportNetwork.ankAreaAgent.tcp.conn-11 dupAcks:vector ETV
attr interpolationmode sample-hold
attr recordingmode vector
vector 306 AirportNetwork.istAreaAgent.app[0] packetReceived:vector(packetBytes) ETV
attr interpolationmode none
attr recordingmode vector(packetBytes)
attr source packetReceived
attr title "packets received, packetBytes"
vector 307 AirportNetwork.istAreaAgent.app[0] endToEndDelay:vector ETV
attr interpolationmode none
attr recordingmode vector
attr source dataAge(packetReceived)
attr title "end-to-end delay"
attr unit s
vector 308 AirportNetwork.istAreaAgent.app[0] packetSent:vector(packetBytes) ETV
attr interpolationmode none
attr recordingmode vector(packetBytes)
attr source packetSent
attr title "packets sent, packetBytes"
vector 309 AirportNetwork.ankAreaAgent.app[0] packetReceived:vector(packetBytes) ETV
attr interpolationmode none
attr recordingmode vector(packetBytes)
[...]
382	1083	1.750048	0
382	1176	2.00001	1
382	1177	2.00001	2
382	1179	2.000048	1
382	1180	2.000048	0
382	1246	2.25001	1
382	1247	2.25001	2
382	1249	2.250048	1
382	1250	2.250048	0
382	1343	2.50001	1
382	1344	2.50001	2
382	1346	2.500048	1
382	1347	2.500048	0
382	1413	2.75001	1
382	1414	2.75001	2
382	1416	2.750048	1
382	1417	2.750048	0
382	1510	3.00001	1
382	1511	3.00001	2
382	1513	3.000048	1
382	1514	3.000048	0
382	1580	3.25001	1
382	1581	3.25001	2
382	1583	3.250048	1
382	1584	3.250048	0
382	1651	3.40001	1
382	1652	3.40001	2
382	1654	3.400052	1
382	1655	3.400052	0
382	1685	3.400200056958	1
382	1686	3.400200056958	2
382	1689	3.400234056958	1
382	1690	3.400234056958	0
382	1699	3.400404056958	1
382	1700	3.400404056958	2
382	1702	3.400446056958	1
382	1703	3.400446056958	0
382	1737	3.400654113831	1
382	1738	3.400654113831	2
382	1741	3.400688113831	1
382	1742	3.400688113831	0
382	1751	3.400838113831	1
382	1752	3.400838113831	2
382	1754	3.400880113831	1
382	1755	3.400880113831	0
382	1789	3.401108170615	1
382	1790	3.401108170615	2
382	1793	3.401142170615	1
382	1794	3.401142170615	0
382	1802	3.401232170615	1
382	1803	3.401232170615	2
382	1806	3.401310170615	1
382	1807	3.401310170615	0
382	1879	3.401926227297	1
382	1880	3.401926227297	2
382	1882	3.402004227297	1
382	1883	3.402004227297	0
383	517	0.100048	32
383	587	0.350048	32
383	686	0.600048	32
383	710	0.600210617126	14
383	845	1.000048	32
383	915	1.250048	32
383	1012	1.500048	32
383	1082	1.750048	32
383	1179	2.000048	32
383	1249	2.250048	32
383	1346	2.500048	32
383	1416	2.750048	32
383	1513	3.000048	32
383	1583	3.250048	32
383	1654	3.400052	34
383	1689	3.400234056958	14
383	1702	3.400446056958	34
383	1741	3.400688113831	14
383	1754	3.400880113831	36
383	1793	3.401142170615	14
383	1806	3.401310170615	323
383	1882	3.402004227297	335
384	517	0.100048	32
384	587	0.350048	32
384	686	0.600048	32
384	845	1.000048	32
384	915	1.250048	32
384	1012	1.500048	32
384	1082	1.750048	32
384	1179	2.000048	32
384	1249	2.250048	32
384	1346	2.500048	32
384	1416	2.750048	32
384	1513	3.000048	32
384	1583	3.250048	32
385	517	0.100048	32
385	587	0.350048	32
385	686	0.600048	32
385	845	1.000048	32
385	915	1.250048	32
385	1012	1.500048	32
385	1082	1.750048	32
385	1179	2.000048	32
385	1249	2.250048	32
385	1346	2.500048	32
385	1416	2.750048	32
385	1513	3.000048	32
385	1583	3.250048	32
386	517	0.100048	32
386	587	0.350048	32
386	686	0.600048	32
386	710	0.600210617126	14
386	845	1.000048	32
386	915	1.250048	32
386	1012	1.500048	32
386	1082	1.750048	32
386	1179	2.000048	32
386	1249	2.250048	32
386	1346	2.500048	32
386	1416	2.750048	32
386	1513	3.000048	32
386	1583	3.250048	32
386	1654	3.400052	34
386	1689	3.400234056958	14
386	1702	3.400446056958	34
386	1741	3.400688113831	14
386	1754	3.400880113831	36
386	1793	3.401142170615	14
386	1806	3.401310170615	323
386	1882	3.402004227297	335
387	517	0.100048	3.8e-05
387	587	0.350048	3.8e-05
387	686	0.600048	3.8e-05
387	845	1.000048	3.8e-05
387	915	1.250048	3.8e-05
387	1012	1.500048	3.8e-05
387	1082	1.750048	3.8e-05
387	1179	2.000048	3.8e-05
387	1249	2.250048	3.8e-05
387	1346	2.500048	3.8e-05
387	1416	2.750048	3.8e-05
387	1513	3.000048	3.8e-05
387	1583	3.250048	3.8e-05
387	1668	3.400098056966	8.8056966e-05
387	1716	3.400492113845	8.8056887e-05
387	1768	3.400926170632	8.8056801e-05
387	1835	3.401356227333	0.000124056718
387	1911	3.402050283876	0.000124056579
388	524	0.1	3920
388	554	0.2	3920
388	594	0.3	3920
388	621	0.4	3920
388	651	0.5	3920
388	691	0.6	3920
388	751	0.7	7840
388	780	0.8	3920
388	812	0.9	3920
388	852	1	3920
388	882	1.1	3920
388	922	1.2	3920
388	949	1.3	3920
388	979	1.4	3920
388	1019	1.5	3920
388	1049	1.6	3920
388	1089	1.7	3920
388	1116	1.8	3920
388	1146	1.9	3920
388	1186	2	3920
388	1216	2.1	3920
388	1256	2.2	3920
388	1283	2.3	3920
388	1313	2.4	3920
388	1353	2.5	3920
388	1383	2.6	3920
388	1423	2.7	3920
388	1450	2.8	3920
388	1480	2.9	3920
388	1520	3	3920
388	1550	3.1	3920
388	1590	3.2	3920
388	1617	3.3	3920
388	1659	3.4	3920
388	1999	3.5	120880
388	2028	3.6	3920
388	2057	3.7	3920
388	2086	3.8	3920
388	2115	3.9	3920
388	2144	4	3920
388	2173	4.1	3920
388	2202	4.2	3920
388	2231	4.3	3920
388	2260	4.4	3920
388	2289	4.5	3920
388	2318	4.6	3920
388	2347	4.7	3920
388	2376	4.8	3920
388	2405	4.9	3920
388	2434	5	3920
388	2463	5.1	3920
388	2492	5.2	3920
388	2521	5.3	3920
388	2550	5.4	3920
388	2579	5.5	3920
388	2608	5.6	3920
388	2637	5.7	3920
388	2666	5.8	3920
388	2695	5.9	3920
388	2724	6	3920
388	2753	6.1	3920
388	2782	6.2	3920
388	2811	6.3	3920
388	2840	6.4	3920
389	526	0.1	3920
389	556	0.2	3920
389	596	0.3	3920
389	623	0.4	3920
389	653	0.5	3920
389	694	0.6	3920
389	753	0.7	7840
389	782	0.8	3920
389	814	0.9	3920
389	854	1	3920
389	884	1.1	3920
389	924	1.2	3920
389	951	1.3	3920
389	981	1.4	3920
389	1021	1.5	3920
389	1051	1.6	3920
389	1091	1.7	3920
389	1118	1.8	3920
389	1148	1.9	3920
389	1188	2	3920
389	1218	2.1	3920
389	1258	2.2	3920
389	1285	2.3	3920
389	1315	2.4	3920
389	1355	2.5	3920
389	1385	2.6	3920
389	1425	2.7	3920
389	1452	2.8	3920
389	1482	2.9	3920
389	1522	3	3920
389	1552	3.1	3920
389	1592	3.2	3920
389	1619	3.3	3920
389	1672	3.4	3920
389	2001	3.5	120880
389	2030	3.6	3920
389	2059	3.7	3920
389	2088	3.8	3920
389	2117	3.9	3920
389	2146	4	3920
389	2175	4.1	3920
389	2204	4.2	3920
389	2233	4.3	3920
389	2262	4.4	3920
389	2291	4.5	3920
389	2320	4.6	3920
389	2349	4.7	3920
389	2378	4.8	3920
389	2407	4.9	3920
389	2436	5	3920
389	2465	5.1	3920
389	2494	5.2	3920
389	2523	5.3	3920
389	2552	5.4	3920
389	2581	5.5	3920
389	2610	5.6	3920
389	2639	5.7	3920
389	2668	5.8	3920
389	2697	5.9	3920
389	2726	6	3920
389	2755	6.1	3920
389	2784	6.2	3920
389	2813	6.3	3920
389	2842	6.4	3920
390	536	0.1	3920
390	566	0.2	3920
390	606	0.3	3920
390	633	0.4	3920
390	665	0.5	3920
390	735	0.6	3920
390	765	0.7	3920
390	794	0.8	3920
390	824	0.9	3920
390	864	1	3920
390	894	1.1	3920
390	934	1.2	3920
390	961	1.3	3920
390	991	1.4	3920
390	1031	1.5	3920
390	1061	1.6	3920
390	1101	1.7	3920
390	1128	1.8	3920
390	1158	1.9	3920
390	1198	2	3920
390	1228	2.1	3920
390	1268	2.2	3920
390	1295	2.3	3920
390	1325	2.4	3920
390	1365	2.5	3920
390	1395	2.6	3920
390	1435	2.7	3920
390	1462	2.8	3920
390	1492	2.9	3920
390	1532	3	3920
390	1562	3.1	3920
390	1602	3.2	3920
390	1629	3.3	3920
390	1984	3.4	3920
390	2013	3.5	3920
390	2042	3.6	3920
390	2071	3.7	3920
390	2100	3.8	3920
390	2129	3.9	3920
390	2158	4	3920
390	2187	4.1	3920
390	2216	4.2	3920
390	2245	4.3	3920
390	2274	4.4	3920
390	2303	4.5	3920
390	2332	4.6	3920
390	2361	4.7	3920
390	2390	4.8	3920
390	2419	4.9	3920
390	2448	5	3920
390	2477	5.1	3920
390	2506	5.2	3920
390	2535	5.3	3920
390	2564	5.4	3920
390	2593	5.5	3920
390	2622	5.6	3920
390	2651	5.7	3920
390	2680	5.8	3920
390	2709	5.9	3920
390	2738	6	3920
390	2767	6.1	3920
390	2796	6.2	3920
390	2825	6.3	3920
390	2854	6.4	3920
391	538	0.1	3920
391	568	0.2	3920
391	608	0.3	3920
391	635	0.4	3920
391	667	0.5	3920
391	737	0.6	3920
391	767	0.7	3920
391	796	0.8	3920
391	826	0.9	3920
391	866	1	3920
391	896	1.1	3920
391	936	1.2	3920
391	963	1.3	3920
391	993	1.4	3920
391	1033	1.5	3920
391	1063	1.6	3920
391	1103	1.7	3920
391	1130	1.8	3920
391	1160	1.9	3920
391	1200	2	3920
391	1230	2.1	3920
391	1270	2.2	3920
391	1297	2.3	3920
391	1327	2.4	3920
391	1367	2.5	3920
391	1397	2.6	3920
391	1437	2.7	3920
391	1464	2.8	3920
391	1494	2.9	3920
391	1534	3	3920
391	1564	3.1	3920
391	1604	3.2	3920
391	1631	3.3	3920
391	1986	3.4	3920
391	2015	3.5	3920
391	2044	3.6	3920
391	2073	3.7	3920
391	2102	3.8	3920
391	2131	3.9	3920
391	2160	4	3920
391	2189	4.1	3920
391	2218	4.2	3920
391	2247	4.3	3920
391	2276	4.4	3920
391	2305	4.5	3920
391	2334	4.6	3920
391	2363	4.7	3920
391	2392	4.8	3920
391	2421	4.9	3920
391	2450	5	3920
391	2479	5.1	3920
391	2508	5.2	3920
391	2537	5.3	3920
391	2566	5.4	3920
391	2595	5.5	3920
391	2624	5.6	3920
391	2653	5.7	3920
391	2682	5.8	3920
391	2711	5.9	3920
391	2740	6	3920
391	2769	6.1	3920
391	2798	6.2	3920
391	2827	6.3	3920
391	2856	6.4	3920
392	660	0.562403681975	49
392	702	0.600166617126	49
392	730	0.662403671971	49
392	760	0.762403661968	49
392	789	0.862403651964	49
392	1668	3.400098056966	14
392	1681	3.400190056958	34
392	1716	3.400492113845	14
392	1729	3.400644113831	34
392	1768	3.400926170632	14
392	1781	3.401098170615	36
392	1835	3.401356227333	14
392	1855	3.401564227316	323
392	1866	3.401756227297	350
392	1911	3.402050283876	14
392	1931	3.40225828386	335
392	1942	3.402530283833	350
392	1979	3.46240339189	49
392	2008	3.562403381888	49
392	2037	3.662403371886	49
392	2066	3.762403361885	49
392	2095	3.862403351884	49
392	2124	3.962403341882	49
392	2153	4.062403331881	49
392	2182	4.16240332188	49
392	2211	4.262403311879	49
392	2240	4.362403301878	49
392	2269	4.462403291877	49
392	2298	4.562403281877	49
392	2327	4.662403271876	49
392	2356	4.762403261876	49
392	2385	4.862403251876	49
392	2414	4.962403241876	49
392	2443	5.062403231876	49
392	2472	5.162403221876	49
392	2501	5.262403211877	49
392	2530	5.362403201878	49
392	2559	5.462403191879	49
392	2588	5.56240318188	49
392	2617	5.662403171881	49
392	2646	5.762403161882	49
392	2675	5.862403151884	49
392	2704	5.962403141886	49
392	2733	6.062403131888	49
392	2762	6.162403121891	49
392	2791	6.262403111893	49
392	2820	6.362403101896	49
392	2849	6.462403091899	49
393	660	0.562403681975	49
393	702	0.600166617126	49
393	730	0.662403671971	49
393	760	0.762403661968	49
393	789	0.862403651964	49
393	1668	3.400098056966	14
393	1681	3.400190056958	34
393	1716	3.400492113845	14
393	1729	3.400644113831	34
393	1768	3.400926170632	14
393	1781	3.401098170615	36
393	1835	3.401356227333	14
393	1866	3.401756227297	350
393	1911	3.402050283876	14
393	1942	3.402530283833	350
393	1979	3.46240339189	49
393	2008	3.562403381888	49
393	2037	3.662403371886	49
393	2066	3.762403361885	49
393	2095	3.862403351884	49
393	2124	3.962403341882	49
393	2153	4.062403331881	49
393	2182	4.16240332188	49
393	2211	4.262403311879	49
393	2240	4.362403301878	49
393	2269	4.462403291877	49
393	2298	4.562403281877	49
393	2327	4.662403271876	49
393	2356	4.762403261876	49
393	2385	4.862403251876	49
393	2414	4.962403241876	49
393	2443	5.062403231876	49
393	2472	5.162403221876	49
393	2501	5.262403211877	49
393	2530	5.362403201878	49
393	2559	5.462403191879	49
393	2588	5.56240318188	49
393	2617	5.662403171881	49
393	2646	5.762403161882	49
393	2675	5.862403151884	49
393	2704	5.962403141886	49
393	2733	6.062403131888	49
393	2762	6.162403121891	49
393	2791	6.262403111893	49
393	2820	6.362403101896	49
393	2849	6.462403091899	49
394	660	0.562403681975	49
394	730	0.662403671971	49
394	760	0.762403661968	49
394	789	0.862403651964	49
394	1866	3.401756227297	350
394	1942	3.402530283833	350
394	1979	3.46240339189	49
394	2008	3.562403381888	49
394	2037	3.662403371886	49
394	2066	3.762403361885	49
394	2095	3.862403351884	49
394	2124	3.962403341882	49
394	2153	4.062403331881	49
394	2182	4.16240332188	49
394	2211	4.262403311879	49
394	2240	4.362403301878	49
394	2269	4.462403291877	49
394	2298	4.562403281877	49
394	2327	4.662403271876	49
394	2356	4.762403261876	49
394	2385	4.862403251876	49
394	2414	4.962403241876	49
394	2443	5.062403231876	49
394	2472	5.162403221876	49
394	2501	5.262403211877	49
394	2530	5.362403201878	49
394	2559	5.462403191879	49
394	2588	5.56240318188	49
394	2617	5.662403171881	49
394	2646	5.762403161882	49
394	2675	5.862403151884	49
394	2704	5.962403141886	49
394	2733	6.062403131888	49
394	2762	6.162403121891	49
394	2791	6.262403111893	49
394	2820	6.362403101896	49
394	2849	6.462403091899	49
395	660	0.562403681975	49
395	730	0.662403671971	49
395	760	0.762403661968	49
395	789	0.862403651964	49
395	1866	3.401756227297	350
395	1942	3.402530283833	350
395	1979	3.46240339189	49
395	2008	3.562403381888	49
395	2037	3.662403371886	49
395	2066	3.762403361885	49
395	2095	3.862403351884	49
395	2124	3.962403341882	49
395	2153	4.062403331881	49
395	2182	4.16240332188	49
395	2211	4.262403311879	49
395	2240	4.362403301878	49
395	2269	4.462403291877	49
395	2298	4.562403281877	49
395	2327	4.662403271876	49
395	2356	4.762403261876	49
395	2385	4.862403251876	49
395	2414	4.962403241876	49
395	2443	5.062403231876	49
395	2472	5.162403221876	49
395	2501	5.262403211877	49
395	2530	5.362403201878	49
395	2559	5.462403191879	49
395	2588	5.56240318188	49
395	2617	5.662403171881	49
395	2646	5.762403161882	49
395	2675	5.862403151884	49
395	2704	5.962403141886	49
395	2733	6.062403131888	49
395	2762	6.162403121891	49
395	2791	6.262403111893	49
395	2820	6.362403101896	49
395	2849	6.462403091899	49
396	660	0.562403681975	49
396	702	0.600166617126	49
396	730	0.662403671971	49
396	760	0.762403661968	49
396	789	0.862403651964	49
396	1668	3.400098056966	14
396	1681	3.400190056958	34
396	1716	3.400492113845	14
396	1729	3.400644113831	34
396	1768	3.400926170632	14
396	1781	3.401098170615	36
396	1835	3.401356227333	14
396	1866	3.401756227297	350
396	1911	3.402050283876	14
396	1942	3.402530283833	350
396	1979	3.46240339189	49
396	2008	3.562403381888	49
396	2037	3.662403371886	49
396	2066	3.762403361885	49
396	2095	3.862403351884	49
396	2124	3.962403341882	49
396	2153	4.062403331881	49
396	2182	4.16240332188	49
396	2211	4.262403311879	49
396	2240	4.362403301878	49
396	2269	4.462403291877	49
396	2298	4.562403281877	49
396	2327	4.662403271876	49
396	2356	4.762403261876	49
396	2385	4.862403251876	49
396	2414	4.962403241876	49
396	2443	5.062403231876	49
396	2472	5.162403221876	49
396	2501	5.262403211877	49
396	2530	5.362403201878	49
396	2559	5.462403191879	49
396	2588	5.56240318188	49
396	2617	5.662403171881	49
396	2646	5.762403161882	49
396	2675	5.862403151884	49
396	2704	5.962403141886	49
396	2733	6.062403131888	49
396	2762	6.162403121891	49
396	2791	6.262403111893	49
396	2820	6.362403101896	49
396	2849	6.462403091899	49
397	689	0.600049308568	32
397	713	0.600211925678	14
397	1657	3.400053028486	34
397	1692	3.400235085425	14
397	1705	3.400447085404	34
397	1744	3.400689142252	14
397	1757	3.400881142234	36
397	1796	3.401143198991	14
397	1809	3.401311198978	323
397	1885	3.402005255591	335
398	689	0.600049308568	32
398	713	0.600211925678	14
398	1657	3.400053028486	34
398	1692	3.400235085425	14
398	1705	3.400447085404	34
398	1744	3.400689142252	14
398	1757	3.400881142234	36
398	1796	3.401143198991	14
398	1809	3.401311198978	323
398	1885	3.402005255591	335
399	689	0.600049308568	32
400	689	0.600049308568	32
401	689	0.600049308568	32
401	713	0.600211925678	14
401	1657	3.400053028486	34
401	1692	3.400235085425	14
401	1705	3.400447085404	34
401	1744	3.400689142252	14
401	1757	3.400881142234	36
401	1796	3.401143198991	14
401	1809	3.401311198978	323
401	1885	3.402005255591	335
402	699	0.600165308568	49
402	1665	3.400097028486	14
402	1678	3.400189028486	34
402	1713	3.400491085404	14
402	1726	3.400643085404	34
402	1765	3.400925142234	14
402	1778	3.401097142234	36
402	1832	3.401355198978	14
402	1908	3.402049255591	14
403	699	0.600165308568	0
403	699	0.600165308568	4.4e-05
403	709	0.600209308568	0
403	1678	3.400189028486	0
403	1678	3.400189028486	4.4e-05
403	1688	3.400233028486	0
403	1726	3.400643085404	0
403	1726	3.400643085404	4.4e-05
403	1740	3.400687085404	0
403	1778	3.401097142234	0
403	1778	3.401097142234	4.4e-05
403	1792	3.401141142234	0
404	702	0.600166617126	49
404	1668	3.400098056966	14
404	1681	3.400190056958	34
404	1716	3.400492113845	14
404	1729	3.400644113831	34
404	1768	3.400926170632	14
404	1781	3.401098170615	36
404	1835	3.401356227333	14
404	1911	3.402050283876	14
405	710	0.600210617126	14
405	1654	3.400052	34
405	1689	3.400234056958	14
405	1702	3.400446056958	34
405	1741	3.400688113831	14
405	1754	3.400880113831	36
405	1793	3.401142170615	14
405	1806	3.401310170615	323
405	1882	3.402004227297	335
406	713	0.600211925678	14
406	1657	3.400053028486	34
406	1692	3.400235085425	14
406	1705	3.400447085404	34
406	1744	3.400689142252	14
406	1757	3.400881142234	36
406	1796	3.401143198991	14
406	1809	3.401311198978	323
406	1885	3.402005255591	335
407	1644	3.40001	1
407	1731	3.400644113831	2
407	1784	3.401098170615	4
408	1654	3.400052	0
408	1654	3.400052	4.4e-05
408	1664	3.400096	0
408	1702	3.400446056958	0
408	1702	3.400446056958	4.4e-05
408	1712	3.400490056958	0
408	1754	3.400880113831	0
408	1754	3.400880113831	4.4e-05
408	1764	3.400924113831	0
408	1806	3.401310170615	0
408	1806	3.401310170615	4.4e-05
408	1831	3.401354170615	0
408	1882	3.402004227297	0
408	1882	3.402004227297	4.4e-05
408	1907	3.402048227297	0
409	1809	3.401311198978	295
409	1885	3.402005255591	307
410	1811	3.401311198978	287
410	1838	3.401363538978	314
410	1887	3.402005255591	299
410	1914	3.402058555591	314
411	1813	3.401311198978	287
411	1840	3.401363538978	314
411	1889	3.402005255591	299
411	1916	3.402058555591	314
412	1814	3.401311198978	2440
412	1890	3.402005255591	2536
413	1814	0.1	0
413	1814	0.2	0
413	1814	0.3	0
413	1814	0.4	0
413	1814	0.5	0
413	1814	0.6	0
413	1814	0.7	0
413	1814	0.8	0
413	1814	0.9	0
413	1814	1	0
413	1814	1.1	0
413	1814	1.2	0
413	1814	1.3	0
413	1814	1.4	0
413	1814	1.5	0
413	1814	1.6	0
413	1814	1.7	0
413	1814	1.8	0
413	1814	1.9	0
413	1814	2	0
413	1814	2.1	0
413	1814	2.2	0
413	1814	2.3	0
413	1814	2.4	0
413	1814	2.5	0
413	1814	2.6	0
413	1814	2.7	0
413	1814	2.8	0
413	1814	2.9	0
413	1814	3	0
413	1814	3.1	0
413	1814	3.2	0
413	1814	3.3	0
413	1814	3.4	0
414	1814	3.401311198978	0
414	1890	3.402005255591	0
415	1814	3.401311198978	2440
415	1890	3.402005255591	2536
416	1814	0.1	0
416	1814	0.2	0
416	1814	0.3	0
416	1814	0.4	0
416	1814	0.5	0
416	1814	0.6	0
416	1814	0.7	0
416	1814	0.8	0
416	1814	0.9	0
416	1814	1	0
416	1814	1.1	0
416	1814	1.2	0
416	1814	1.3	0
416	1814	1.4	0
416	1814	1.5	0
416	1814	1.6	0
416	1814	1.7	0
416	1814	1.8	0
416	1814	1.9	0
416	1814	2	0
416	1814	2.1	0
416	1814	2.2	0
416	1814	2.3	0
416	1814	2.4	0
416	1814	2.5	0
416	1814	2.6	0
416	1814	2.7	0
416	1814	2.8	0
416	1814	2.9	0
416	1814	3	0
416	1814	3.1	0
416	1814	3.2	0
416	1814	3.3	0
416	1814	3.4	0
417	1814	3.401311198978	305
417	1890	3.402005255591	317
418	1814	3.401311198978	0
418	1890	3.402005255591	0
419	1814	3.401311198978	0
419	1890	3.402005255591	0
420	1820	3.401336238978	305
420	1896	3.402031255591	317
421	1821	3.401336288978	305
421	1897	3.402031305591	317
422	1821	3.401336288978	305
422	1897	3.402031305591	317
423	1824	3.401336288978	267
423	1900	3.402031305591	279
424	1826	3.401336288978	294
424	1902	3.402031305591	294
425	1829	3.401336288978	2656
425	1905	3.402031305591	2656
426	1829	0.1	0
426	1829	0.2	0
426	1829	0.3	0
426	1829	0.4	0
426	1829	0.5	0
426	1829	0.6	0
426	1829	0.7	0
426	1829	0.8	0
426	1829	0.9	0
426	1829	1	0
426	1829	1.1	0
426	1829	1.2	0
426	1829	1.3	0
426	1829	1.4	0
426	1829	1.5	0
426	1829	1.6	0
426	1829	1.7	0
426	1829	1.8	0
426	1829	1.9	0
426	1829	2	0
426	1829	2.1	0
426	1829	2.2	0
426	1829	2.3	0
426	1829	2.4	0
426	1829	2.5	0
426	1829	2.6	0
426	1829	2.7	0
426	1829	2.8	0
426	1829	2.9	0
426	1829	3	0
426	1829	3.1	0
426	1829	3.2	0
426	1829	3.3	0
426	1829	3.4	0
427	1829	3.401336288978	0
427	1905	3.402031305591	0
428	1829	3.401336288978	2656
428	1905	3.402031305591	2656
429	1829	0.1	0
429	1829	0.2	0
429	1829	0.3	0
429	1829	0.4	0
429	1829	0.5	0
429	1829	0.6	0
429	1829	0.7	0
429	1829	0.8	0
429	1829	0.9	0
429	1829	1	0
429	1829	1.1	0
429	1829	1.2	0
429	1829	1.3	0
429	1829	1.4	0
429	1829	1.5	0
429	1829	1.6	0
429	1829	1.7	0
429	1829	1.8	0
429	1829	1.9	0
429	1829	2	0
429	1829	2.1	0
429	1829	2.2	0
429	1829	2.3	0
429	1829	2.4	0
429	1829	2.5	0
429	1829	2.6	0
429	1829	2.7	0
429	1829	2.8	0
429	1829	2.9	0
429	1829	3	0
429	1829	3.1	0
429	1829	3.2	0
429	1829	3.3	0
429	1829	3.4	0
430	1829	3.401336288978	332
430	1905	3.402031305591	332
431	1829	3.401336288978	0
431	1905	3.402031305591	0
432	1829	3.401336288978	0
432	1905	3.402031305591	0
433	1836	3.401363488978	332
433	1912	3.402058505591	332
434	1837	3.401363538978	332
434	1913	3.402058555591	332
435	1837	3.401363538978	332
435	1913	3.402058555591	332
436	1842	3.401363538978	322
436	1918	3.402058555591	322
437	1855	3.401564227316	323
437	1931	3.40225828386	335
438	1855	3.401564227316	323
438	1931	3.40225828386	335
439	1855	3.401564227316	323
439	1931	3.40225828386	335
440	1866	3.401756227297	322
440	1942	3.402530283833	322
441	1869	3.401756227297	294
441	1945	3.402530283833	294

