version 3
run General-0-20230828-14:14:38-10388
attr configname General
attr datetime 20230828-14:14:38
attr datetimef 20230828-141438
attr experiment General
attr inifile omnetpp.ini
attr iterationvars ""
attr iterationvarsd ""
attr iterationvarsf ""
attr measurement ""
attr network AirportNetwork
attr processid 10388
attr repetition 0
attr replication #0
attr resultdir results
attr runnumber 0
attr seedset 0
config image-path ../../inet4.5/images
config description "Aeronautical Communication Network"
config network AirportNetwork
config *.configurator.dumpAddresses true
config *.configurator.dumpTopology true
config *.configurator.dumpLinks true
config *.configurator.dumpRoutes true
config *.*.ipv4.arp.typename GlobalArp
config *.*.ipv4.routingTable.netmaskRoutes "\"\""
config **.forwarding true
config **.mgmt.numChannels 13
config *.*.wlan[*].bitrate 54Mbps
config **.analogModel.ignorePartialInterference true
config **.wlan[*].mac.headerLength 1B
config **.wlan[*].mgmt.numAuthSteps 4
config **.wlan[*].agent.activeScan true
config **.wlan[*].agent.defaultSsid "\"\""
config **.wlan[*].agent.channelsToScan "\"\""
config **.wlan[*].agent.probeDelay 0.1s
config **.wlan[*].agent.minChannelTime 0.15s
config **.wlan[*].agent.maxChannelTime 0.3s
config **.wlan[*].agent.authenticationTimeout 5s
config **.wlan[*].agent.associationTimeout 5s
config **.wlan[*].mac.dcf.channelAccess.cwMin 7
config **.constraintAreaMinX 0m
config **.constraintAreaMinY 0m
config **.constraintAreaMinZ 0m
config **.constraintAreaMaxX 100000m
config **.constraintAreaMaxY 100000m
config **.constraintAreaMaxZ 0m
config *.visualizer.routingTableVisualizer.displayRoutingTables true
config *.visualizer.routingTableVisualizer.destinationFilter "\"*\""
config *.visualizer.routingTableVisualizer.lineShift 0
config *.visualizer.routingTableVisualizer.labelFormat "\"\""
config **.visualizer.ieee80211Visualizer.displayAssociations true
config **.visualizer.mediumVisualizer.nodeFilter "\"\""
config **.visualizer.mediumVisualizer.packetFilter "\"*\""
config **.visualizer.mediumVisualizer.displaySignals true
config **.visualizer.mediumVisualizer.displaySignalArrivals false
config **.visualizer.mediumVisualizer.displaySignalDepartures false
config **.visualizer.mediumVisualizer.displayReceptions true
config **.visualizer.mediumVisualizer.displayTransmissions true
config **.visualizer.mediumVisualizer.displayCommunicationRanges true
config **.visualizer.mediumVisualizer.displayInterferenceRanges true
config **.visualizer.physicalLinkVisualizer.displayLinks true
config **.visualizer.physicalLinkVisualizer.packetFilter "\"*\""
config **.visualizer.networkRouteVisualizer.displayRoutes false
config **.visualizer.networkRouteVisualizer.packetFilter "\"*\""
config **.visualizer.networkRouteVisualizer.fadeOutMode "\"simulationTime\""
config **.visualizer.networkRouteVisualizer.fadeOutTime 5s
config **.visualizer.pathVisualizer.displayRoutes true
config **.visualizer.pathVisualizer.fadeOutTime 3s
config **.visualizer.dataLinkVisualizer.displayLinks true
config **.visualizer.dataLinkVisualizer.fadeOutMode "\"simulationTime\""
config **.visualizer.dataLinkVisualizer.fadeOutTime 1.4s
config **.visualizer.dataLinkVisualizer.packetFilter "\"*\""
config **.visualizer.dataLinkVisualizer.nodeFilter "\"*\""
config **.visualizer.interfaceTableVisualizer.displayInterfaceTables false
config **.visualizer.interfaceTableVisualizer.nodeFilter "\"*\""
config **.visualizer.interfaceTableVisualizer.interfaceFilter "\"not lo* and not ipv4Address =~ '<unspec>'\""
config **.visualizer.mobilityVisualizer.animationSpeed 1
config **.visualizer.mobilityVisualizer.displayMovementTrails true
config **.visualizer.mobilityVisualizer.trailLength 50
config **.visualizer.mobilityVisualizer.displayVelocities true
config **.visualizer.mobilityVisualizer.displayOrientations true
config **.visualizer.transportConnectionVisualizer.displayTransportConnections true
config **.visualizer.transportConnectionVisualizer.destinationPortFilter "\"1000\""
config **.visualizer.transportConnectionVisualizer.placementHint "\"topCenter\""
config **.visualizer.transportRouteVisualizer.displayRoutes true
config **.visualizer.transportRouteVisualizer.fadeOutMode "\"simulationTime\""
config **.visualizer.transportRouteVisualizer.fadeOutTime 1.2s
config **.visualizer.transportRouteVisualizer.packetFilter "\"*\""
config **.visualizer.transportRouteVisualizer.nodeFilter "\"*\""
config **.visualizer.packetDropVisualizer.displayPacketDrops false
config **.visualizer.packetDropVisualizer.labelFormat "\"name:%n /reason: %r/class:%c\""
config **.visualizer.packetDropVisualizer.fadeOutTime 3s
config **.visualizer.*.statisticVisualizer.signalName "\"packetSentToUpper\""
config **.visualizer.*.statisticVisualizer.statisticExpression "\"packetErrorRate\""
config **.visualizer.*.statisticVisualizer.sourceFilter "\"*.destination.wlan[*].radio\""
config **.visualizer.*.statisticVisualizer.format "\"packetErrorRate: %v\""

vector 0 AirportNetwork.istAreaAgent.udp passedUpPk:vector(count) ETV
attr interpolationmode none
attr recordingmode vector(count)
attr source packetSentToUpper
attr title "packets passed up, count"
vector 1 AirportNetwork.istAreaAgent.udp droppedPkWrongPort:vector(count) ETV
attr interpolationmode none
attr recordingmode vector(count)
attr source packetDropReasonIsNoPortFound(packetDropped)
attr title "packets dropped (wrong port), count"
vector 2 AirportNetwork.istAreaAgent.udp droppedPkBadChecksum:vector(count) ETV
attr interpolationmode none
attr recordingmode vector(count)
attr source packetDropReasonIsIncorrectlyReceived(packetDropped)
attr title "packets dropped (checksum error), count"
vector 3 AirportNetwork.ankAreaAgent.udp passedUpPk:vector(count) ETV
attr interpolationmode none
attr recordingmode vector(count)
attr source packetSentToUpper
attr title "packets passed up, count"
vector 4 AirportNetwork.ankAreaAgent.udp droppedPkWrongPort:vector(count) ETV
attr interpolationmode none
attr recordingmode vector(count)
attr source packetDropReasonIsNoPortFound(packetDropped)
attr title "packets dropped (wrong port), count"
vector 5 AirportNetwork.ankAreaAgent.udp droppedPkBadChecksum:vector(count) ETV
attr interpolationmode none
attr recordingmode vector(count)
attr source packetDropReasonIsIncorrectlyReceived(packetDropped)
attr title "packets dropped (checksum error), count"
vector 6 AirportNetwork.atmSawAP.wlan[0].mac.dcf frameSequenceActive:vector ETV
attr autoWarmupFilter false
attr interpolationmode sample-hold
attr recordingmode vector
attr source warmup(count(frameSequenceStarted)-count(frameSequenceFinished))
attr title "frame sequence active"
vector 7 AirportNetwork.atmSawAP.wlan[0].mac.dcf.channelAccess.inProgressFrames queueLength:vector ETV
attr autoWarmupFilter false
attr interpolationmode sample-hold
attr recordingmode vector
attr source "warmup(count(packetEnqueued) - count(packetDequeued))"
attr title "queue length"
vector 8 AirportNetwork.atmSawAP.wlan[0].mac.dcf.channelAccess.contention backoffActive:vector ETV
attr autoWarmupFilter false
attr interpolationmode sample-hold
attr recordingmode vector
attr source warmup(count(backoffStarted)-count(backoffStopped))
attr title "backoff active"
vector 9 AirportNetwork.atmEsbAP.wlan[0].mac.dcf frameSequenceActive:vector ETV
attr autoWarmupFilter false
attr interpolationmode sample-hold
attr recordingmode vector
attr source warmup(count(frameSequenceStarted)-count(frameSequenceFinished))
attr title "frame sequence active"
vector 10 AirportNetwork.atmEsbAP.wlan[0].mac.dcf.channelAccess.inProgressFrames queueLength:vector ETV
attr autoWarmupFilter false
attr interpolationmode sample-hold
attr recordingmode vector
attr source "warmup(count(packetEnqueued) - count(packetDequeued))"
attr title "queue length"
vector 11 AirportNetwork.atmEsbAP.wlan[0].mac.dcf.channelAccess.contention backoffActive:vector ETV
attr autoWarmupFilter false
attr interpolationmode sample-hold
attr recordingmode vector
attr source warmup(count(backoffStarted)-count(backoffStopped))
attr title "backoff active"
vector 12 AirportNetwork.sawDelivery.udp passedUpPk:vector(count) ETV
attr interpolationmode none
attr recordingmode vector(count)
attr source packetSentToUpper
attr title "packets passed up, count"
vector 13 AirportNetwork.sawDelivery.udp droppedPkWrongPort:vector(count) ETV
attr interpolationmode none
attr recordingmode vector(count)
attr source packetDropReasonIsNoPortFound(packetDropped)
attr title "packets dropped (wrong port), count"
vector 14 AirportNetwork.sawDelivery.udp droppedPkBadChecksum:vector(count) ETV
attr interpolationmode none
attr recordingmode vector(count)
attr source packetDropReasonIsIncorrectlyReceived(packetDropped)
attr title "packets dropped (checksum error), count"
vector 15 AirportNetwork.sawGround.udp passedUpPk:vector(count) ETV
attr interpolationmode none
attr recordingmode vector(count)
attr source packetSentToUpper
attr title "packets passed up, count"
vector 16 AirportNetwork.sawGround.udp droppedPkWrongPort:vector(count) ETV
attr interpolationmode none
attr recordingmode vector(count)
attr source packetDropReasonIsNoPortFound(packetDropped)
attr title "packets dropped (wrong port), count"
vector 17 AirportNetwork.sawGround.udp droppedPkBadChecksum:vector(count) ETV
attr interpolationmode none
attr recordingmode vector(count)
attr source packetDropReasonIsIncorrectlyReceived(packetDropped)
attr title "packets dropped (checksum error), count"
vector 18 AirportNetwork.sawTower.udp passedUpPk:vector(count) ETV
attr interpolationmode none
attr recordingmode vector(count)
attr source packetSentToUpper
attr title "packets passed up, count"
vector 19 AirportNetwork.sawTower.udp droppedPkWrongPort:vector(count) ETV
attr interpolationmode none
attr recordingmode vector(count)
attr source packetDropReasonIsNoPortFound(packetDropped)
attr title "packets dropped (wrong port), count"
vector 20 AirportNetwork.sawTower.udp droppedPkBadChecksum:vector(count) ETV
attr interpolationmode none
attr recordingmode vector(count)
attr source packetDropReasonIsIncorrectlyReceived(packetDropped)
attr title "packets dropped (checksum error), count"
vector 21 AirportNetwork.esbTower.udp passedUpPk:vector(count) ETV
attr interpolationmode none
attr recordingmode vector(count)
attr source packetSentToUpper
attr title "packets passed up, count"
vector 22 AirportNetwork.esbTower.udp droppedPkWrongPort:vector(count) ETV
attr interpolationmode none
attr recordingmode vector(count)
attr source packetDropReasonIsNoPortFound(packetDropped)
attr title "packets dropped (wrong port), count"
vector 23 AirportNetwork.esbTower.udp droppedPkBadChecksum:vector(count) ETV
attr interpolationmode none
attr recordingmode vector(count)
attr source packetDropReasonIsIncorrectlyReceived(packetDropped)
attr title "packets dropped (checksum error), count"
vector 24 AirportNetwork.esbGround.udp passedUpPk:vector(count) ETV
attr interpolationmode none
attr recordingmode vector(count)
attr source packetSentToUpper
attr title "packets passed up, count"
vector 25 AirportNetwork.esbGround.udp droppedPkWrongPort:vector(count) ETV
attr interpolationmode none
attr recordingmode vector(count)
attr source packetDropReasonIsNoPortFound(packetDropped)
attr title "packets dropped (wrong port), count"
vector 26 AirportNetwork.esbGround.udp droppedPkBadChecksum:vector(count) ETV
attr interpolationmode none
attr recordingmode vector(count)
attr source packetDropReasonIsIncorrectlyReceived(packetDropped)
attr title "packets dropped (checksum error), count"
vector 27 AirportNetwork.esbDelivery.udp passedUpPk:vector(count) ETV
attr interpolationmode none
attr recordingmode vector(count)
attr source packetSentToUpper
attr title "packets passed up, count"
vector 28 AirportNetwork.esbDelivery.udp droppedPkWrongPort:vector(count) ETV
attr interpolationmode none
attr recordingmode vector(count)
attr source packetDropReasonIsNoPortFound(packetDropped)
attr title "packets dropped (wrong port), count"
vector 29 AirportNetwork.esbDelivery.udp droppedPkBadChecksum:vector(count) ETV
attr interpolationmode none
attr recordingmode vector(count)
attr source packetDropReasonIsIncorrectlyReceived(packetDropped)
attr title "packets dropped (checksum error), count"
vector 30 AirportNetwork.thyFlight.wlan[0].mac.dcf frameSequenceActive:vector ETV
attr autoWarmupFilter false
attr interpolationmode sample-hold
attr recordingmode vector
attr source warmup(count(frameSequenceStarted)-count(frameSequenceFinished))
attr title "frame sequence active"
vector 31 AirportNetwork.thyFlight.wlan[0].mac.dcf.channelAccess.inProgressFrames queueLength:vector ETV
attr autoWarmupFilter false
attr interpolationmode sample-hold
attr recordingmode vector
attr source "warmup(count(packetEnqueued) - count(packetDequeued))"
attr title "queue length"
vector 32 AirportNetwork.thyFlight.wlan[0].mac.dcf.channelAccess.contention backoffActive:vector ETV
attr autoWarmupFilter false
attr interpolationmode sample-hold
attr recordingmode vector
attr source warmup(count(backoffStarted)-count(backoffStopped))
attr title "backoff active"
vector 33 AirportNetwork.thyFlight.udp passedUpPk:vector(count) ETV
attr interpolationmode none
attr recordingmode vector(count)
attr source packetSentToUpper
attr title "packets passed up, count"
vector 34 AirportNetwork.thyFlight.udp droppedPkWrongPort:vector(count) ETV
attr interpolationmode none
attr recordingmode vector(count)
attr source packetDropReasonIsNoPortFound(packetDropped)
attr title "packets dropped (wrong port), count"
vector 35 AirportNetwork.thyFlight.udp droppedPkBadChecksum:vector(count) ETV
attr interpolationmode none
attr recordingmode vector(count)
attr source packetDropReasonIsIncorrectlyReceived(packetDropped)
attr title "packets dropped (checksum error), count"
vector 36 AirportNetwork.atmSawAP.wlan[0].radio radioMode:vector ETV
attr interpolationmode sample-hold
attr recordingmode vector
attr source radioModeChanged
attr title "Radio mode"
vector 37 AirportNetwork.atmSawAP.wlan[0].radio radioChannel:vector ETV
attr interpolationmode sample-hold
attr recordingmode vector
attr source radioChannelChanged
attr title "Radio channel"
vector 38 AirportNetwork.atmEsbAP.wlan[0].radio radioMode:vector ETV
attr interpolationmode sample-hold
attr recordingmode vector
attr source radioModeChanged
attr title "Radio mode"
vector 39 AirportNetwork.atmEsbAP.wlan[0].radio radioChannel:vector ETV
attr interpolationmode sample-hold
attr recordingmode vector
attr source radioChannelChanged
attr title "Radio channel"
vector 40 AirportNetwork.thyFlight.wlan[0].radio radioMode:vector ETV
attr interpolationmode sample-hold
attr recordingmode vector
attr source radioModeChanged
attr title "Radio mode"
vector 41 AirportNetwork.thyFlight.wlan[0].radio radioChannel:vector ETV
attr interpolationmode sample-hold
attr recordingmode vector
attr source radioChannelChanged
attr title "Radio channel"
vector 42 AirportNetwork.atmSawAP.wlan[0].radio receptionState:vector ETV
attr interpolationmode sample-hold
attr recordingmode vector
attr source receptionStateChanged
attr title "Radio reception state"
vector 43 AirportNetwork.atmSawAP.wlan[0].mac.dcf.channelAccess.contention stateChanged:vector ETV
attr enum IDLE,DEFER,IFS_AND_BACKOFF
attr interpolationmode none
attr recordingmode vector
attr title "contention state changed"
attr type enum
vector 44 AirportNetwork.atmEsbAP.wlan[0].radio receptionState:vector ETV
attr interpolationmode sample-hold
attr recordingmode vector
attr source receptionStateChanged
attr title "Radio reception state"
vector 45 AirportNetwork.atmEsbAP.wlan[0].mac.dcf.channelAccess.contention stateChanged:vector ETV
attr enum IDLE,DEFER,IFS_AND_BACKOFF
attr interpolationmode none
attr recordingmode vector
attr title "contention state changed"
attr type enum
vector 46 AirportNetwork.thyFlight.wlan[0].radio receptionState:vector ETV
attr interpolationmode sample-hold
attr recordingmode vector
attr source receptionStateChanged
attr title "Radio reception state"
vector 47 AirportNetwork.thyFlight.wlan[0].mac.dcf.channelAccess.contention stateChanged:vector ETV
attr enum IDLE,DEFER,IFS_AND_BACKOFF
attr interpolationmode none
attr recordingmode vector
attr title "contention state changed"
attr type enum
vector 48 AirportNetwork.atmSawAP.wlan[0].mac.dcf.recoveryProcedure contentionWindowChanged:vector ETV
attr interpolationmode sample-hold
attr recordingmode vector
attr title "contention window"
vector 49 AirportNetwork.atmEsbAP.wlan[0].mac.dcf.recoveryProcedure contentionWindowChanged:vector ETV
attr interpolationmode sample-hold
attr recordingmode vector
attr title "contention window"
vector 50 AirportNetwork.thyFlight.wlan[0].mac.dcf.recoveryProcedure contentionWindowChanged:vector ETV
attr interpolationmode sample-hold
attr recordingmode vector
attr title "contention window"
vector 51 AirportNetwork.atmEsbAP.wlan[0].mac.dcf.channelAccess.pendingQueue incomingPacketLengths:vector ETV
attr interpolationmode none
attr recordingmode vector
attr source packetLength(packetPushStarted)
attr title "incoming packet lengths"
attr unit b
vector 52 AirportNetwork.atmEsbAP.wlan[0].mac.dcf.channelAccess.pendingQueue queueLength:vector ETV
attr autoWarmupFilter false
attr interpolationmode sample-hold
attr recordingmode vector
attr source "warmup(atomic(constant0(packetPushEnded) + count(packetPushStarted) - count(packetPulled) - count(packetRemoved) - count(packetDropped)))"
attr title "queue length"
attr unit pk
vector 53 AirportNetwork.atmEsbAP.wlan[0].mac.dcf.channelAccess.pendingQueue queueBitLength:vector ETV
attr autoWarmupFilter false
attr interpolationmode sample-hold
attr recordingmode vector
attr source "warmup(atomic(constant0(packetPushEnded) + sum(packetLength(packetPushStarted)) - sum(packetLength(packetPulled)) - sum(packetLength(packetRemoved)) - sum(packetLength(packetDropped))))"
attr title "queue bit length"
attr unit b
vector 54 AirportNetwork.atmEsbAP.wlan[0].mac.dcf.channelAccess.contention backoffPeriodGenerated:vector ETV
attr interpolationmode none
attr recordingmode vector
attr title "backoff periods"
vector 55 AirportNetwork.atmEsbAP.wlan[0].mac.dcf.channelAccess.pendingQueue queueingTime:vector ETV
attr interpolationmode none
attr recordingmode vector
attr source queueingTime(packetPulled)
attr title "queueing times"
attr unit s
vector 56 AirportNetwork.atmEsbAP.wlan[0].mac.dcf.channelAccess.pendingQueue outgoingPacketLengths:vector ETV
attr interpolationmode none
attr recordingmode vector
attr source packetLength(packetPulled)
attr title "outgoing packet lengths"
attr unit b
vector 57 AirportNetwork.atmEsbAP.wlan[0].mac.dcf datarateSelected:vector ETV
attr interpolationmode none
attr recordingmode vector
attr title "datarates selected"
vector 58 AirportNetwork.atmEsbAP.wlan[0].mac packetSentToLower:vector(packetBytes) ETV
attr interpolationmode none
attr recordingmode vector(packetBytes)
attr title "packets sent to lower layer, packetBytes"
vector 59 AirportNetwork.atmEsbAP.wlan[0].radio transmissionState:vector ETV
attr interpolationmode sample-hold
attr recordingmode vector
attr source transmissionStateChanged
attr title "Radio transmission state"
vector 60 AirportNetwork.atmEsbAP.wlan[0].mac.dcf packetSentToPeer:vector(packetBytes) ETV
attr interpolationmode none
attr recordingmode vector(packetBytes)
attr title "packets sent, packetBytes"
vector 61 AirportNetwork.atmEsbAP.wlan[0].mac.dcf packetSentToPeerMulticast:vector(packetBytes) ETV
attr interpolationmode none
attr recordingmode vector(packetBytes)
attr source ieee80211Multicast(packetSentToPeer)
attr title "packets sent: multicast, packetBytes"
vector 62 AirportNetwork.atmEsbAP.wlan[0].mac.dcf packetSentToPeerBroadcast:vector(packetBytes) ETV
attr interpolationmode none
attr recordingmode vector(packetBytes)
attr source ieee80211Broadcast(packetSentToPeer)
attr title "packets sent: broadcast , packetBytes"
vector 63 AirportNetwork.atmEsbAP.wlan[0].mac.dcf packetSentToPeerWithoutRetry:vector(packetBytes) ETV
attr interpolationmode none
attr recordingmode vector(packetBytes)
attr source ieee80211NotRetry(packetSentToPeer)
attr title "packets sent: without retry, packetBytes"
vector 64 AirportNetwork.atmEsbAP.wlan[0].mac.dcf.channelAccess.inProgressFrames queueingTime:vector ETV
attr interpolationmode none
attr recordingmode vector
attr source queueingTime(packetDequeued)
attr title "queueing times"
vector 65 AirportNetwork.atmSawAP.wlan[0].mac.dcf.channelAccess.pendingQueue incomingPacketLengths:vector ETV
attr interpolationmode none
attr recordingmode vector
attr source packetLength(packetPushStarted)
attr title "incoming packet lengths"
attr unit b
vector 66 AirportNetwork.atmSawAP.wlan[0].mac.dcf.channelAccess.pendingQueue queueLength:vector ETV
attr autoWarmupFilter false
attr interpolationmode sample-hold
attr recordingmode vector
attr source "warmup(atomic(constant0(packetPushEnded) + count(packetPushStarted) - count(packetPulled) - count(packetRemoved) - count(packetDropped)))"
attr title "queue length"
attr unit pk
vector 67 AirportNetwork.atmSawAP.wlan[0].mac.dcf.channelAccess.pendingQueue queueBitLength:vector ETV
attr autoWarmupFilter false
attr interpolationmode sample-hold
attr recordingmode vector
attr source "warmup(atomic(constant0(packetPushEnded) + sum(packetLength(packetPushStarted)) - sum(packetLength(packetPulled)) - sum(packetLength(packetRemoved)) - sum(packetLength(packetDropped))))"
attr title "queue bit length"
attr unit b
vector 68 AirportNetwork.atmSawAP.wlan[0].mac.dcf.channelAccess.contention backoffPeriodGenerated:vector ETV
attr interpolationmode none
attr recordingmode vector
attr title "backoff periods"
vector 69 AirportNetwork.atmSawAP.wlan[0].mac.dcf.channelAccess.pendingQueue queueingTime:vector ETV
attr interpolationmode none
attr recordingmode vector
attr source queueingTime(packetPulled)
attr title "queueing times"
attr unit s
vector 70 AirportNetwork.atmSawAP.wlan[0].mac.dcf.channelAccess.pendingQueue outgoingPacketLengths:vector ETV
attr interpolationmode none
attr recordingmode vector
attr source packetLength(packetPulled)
attr title "outgoing packet lengths"
attr unit b
vector 71 AirportNetwork.atmSawAP.wlan[0].mac.dcf datarateSelected:vector ETV
attr interpolationmode none
attr recordingmode vector
attr title "datarates selected"
vector 72 AirportNetwork.atmSawAP.wlan[0].mac packetSentToLower:vector(packetBytes) ETV
attr interpolationmode none
attr recordingmode vector(packetBytes)
attr title "packets sent to lower layer, packetBytes"
vector 73 AirportNetwork.atmSawAP.wlan[0].radio transmissionState:vector ETV
attr interpolationmode sample-hold
attr recordingmode vector
attr source transmissionStateChanged
attr title "Radio transmission state"
vector 74 AirportNetwork.atmSawAP.wlan[0].mac.dcf packetSentToPeer:vector(packetBytes) ETV
attr interpolationmode none
attr recordingmode vector(packetBytes)
attr title "packets sent, packetBytes"
vector 75 AirportNetwork.atmSawAP.wlan[0].mac.dcf packetSentToPeerMulticast:vector(packetBytes) ETV
attr interpolationmode none
attr recordingmode vector(packetBytes)
attr source ieee80211Multicast(packetSentToPeer)
attr title "packets sent: multicast, packetBytes"
vector 76 AirportNetwork.atmSawAP.wlan[0].mac.dcf packetSentToPeerBroadcast:vector(packetBytes) ETV
attr interpolationmode none
attr recordingmode vector(packetBytes)
attr source ieee80211Broadcast(packetSentToPeer)
attr title "packets sent: broadcast , packetBytes"
vector 77 AirportNetwork.atmSawAP.wlan[0].mac.dcf packetSentToPeerWithoutRetry:vector(packetBytes) ETV
attr interpolationmode none
attr recordingmode vector(packetBytes)
attr source ieee80211NotRetry(packetSentToPeer)
attr title "packets sent: without retry, packetBytes"
vector 78 AirportNetwork.atmSawAP.wlan[0].mac.dcf.channelAccess.inProgressFrames queueingTime:vector ETV
attr interpolationmode none
attr recordingmode vector
attr source queueingTime(packetDequeued)
attr title "queueing times"
vector 79 AirportNetwork.thyFlight.wlan[0].mac packetReceivedFromLower:vector(packetBytes) ETV
attr interpolationmode none
attr recordingmode vector(packetBytes)
attr title "packets received from lower layer, packetBytes"
vector 80 AirportNetwork.thyFlight.wlan[0].mac.dcf packetReceivedFromPeer:vector(packetBytes) ETV
attr interpolationmode none
attr recordingmode vector(packetBytes)
attr title "packets received, packetBytes"
vector 81 AirportNetwork.thyFlight.wlan[0].mac.dcf packetReceivedFromPeerMulticast:vector(packetBytes) ETV
attr interpolationmode none
attr recordingmode vector(packetBytes)
attr source ieee80211Multicast(packetReceivedFromPeer)
attr title "packets received: multicast, packetBytes"
vector 82 AirportNetwork.thyFlight.wlan[0].mac.dcf packetReceivedFromPeerBroadcast:vector(packetBytes) ETV
attr interpolationmode none
attr recordingmode vector(packetBytes)
attr source ieee80211Broadcast(packetReceivedFromPeer)
attr title "packets received: broadcast, packetBytes"
vector 83 AirportNetwork.thyFlight.wlan[0].mac.dcf packetReceivedFromPeerWithoutRetry:vector(packetBytes) ETV
attr interpolationmode none
attr recordingmode vector(packetBytes)
attr source ieee80211NotRetry(packetReceivedFromPeer)
attr title "packets received: without retry, packetBytes"
vector 84 AirportNetwork.atmEsbAP.wlan[0].mac.dcf.channelAccess.pendingQueue incomingDataRate:vector ETV
attr interpolationmode linear
attr recordingmode vector
attr source throughput(packetPushStarted)
attr title "incoming datarate"
attr unit bps
vector 85 AirportNetwork.atmEsbAP.wlan[0].mac.dcf.channelAccess.pendingQueue outgoingDataRate:vector ETV
attr interpolationmode linear
attr recordingmode vector
attr source throughput(packetPulled)
attr title "outgoing datarate"
attr unit bps
vector 86 AirportNetwork.atmSawAP.wlan[0].mac.dcf.channelAccess.pendingQueue incomingDataRate:vector ETV
attr interpolationmode linear
attr recordingmode vector
attr source throughput(packetPushStarted)
attr title "incoming datarate"
attr unit bps
vector 87 AirportNetwork.atmSawAP.wlan[0].mac.dcf.channelAccess.pendingQueue outgoingDataRate:vector ETV
attr interpolationmode linear
attr recordingmode vector
attr source throughput(packetPulled)
attr title "outgoing datarate"
attr unit bps
vector 88 AirportNetwork.thyFlight.wlan[0].agent sentRequest:vector ETV
attr recordingmode vector
attr title "sent requests"
vector 89 AirportNetwork.thyFlight.wlan[0].mac.dcf.channelAccess.pendingQueue incomingPacketLengths:vector ETV
attr interpolationmode none
attr recordingmode vector
attr source packetLength(packetPushStarted)
attr title "incoming packet lengths"
attr unit b
vector 90 AirportNetwork.thyFlight.wlan[0].mac.dcf.channelAccess.pendingQueue incomingDataRate:vector ETV
attr interpolationmode linear
attr recordingmode vector
attr source throughput(packetPushStarted)
attr title "incoming datarate"
attr unit bps
vector 91 AirportNetwork.thyFlight.wlan[0].mac.dcf.channelAccess.pendingQueue queueLength:vector ETV
attr autoWarmupFilter false
attr interpolationmode sample-hold
attr recordingmode vector
attr source "warmup(atomic(constant0(packetPushEnded) + count(packetPushStarted) - count(packetPulled) - count(packetRemoved) - count(packetDropped)))"
attr title "queue length"
attr unit pk
vector 92 AirportNetwork.thyFlight.wlan[0].mac.dcf.channelAccess.pendingQueue queueBitLength:vector ETV
attr autoWarmupFilter false
attr interpolationmode sample-hold
attr recordingmode vector
attr source "warmup(atomic(constant0(packetPushEnded) + sum(packetLength(packetPushStarted)) - sum(packetLength(packetPulled)) - sum(packetLength(packetRemoved)) - sum(packetLength(packetDropped))))"
attr title "queue bit length"
attr unit b
vector 93 AirportNetwork.thyFlight.wlan[0].mac.dcf.channelAccess.contention backoffPeriodGenerated:vector ETV
attr interpolationmode none
attr recordingmode vector
attr title "backoff periods"
vector 94 AirportNetwork.thyFlight.wlan[0].mac.dcf.channelAccess.pendingQueue queueingTime:vector ETV
attr interpolationmode none
attr recordingmode vector
attr source queueingTime(packetPulled)
attr title "queueing times"
attr unit s
vector 95 AirportNetwork.thyFlight.wlan[0].mac.dcf.channelAccess.pendingQueue outgoingPacketLengths:vector ETV
attr interpolationmode none
attr recordingmode vector
attr source packetLength(packetPulled)
attr title "outgoing packet lengths"
attr unit b
vector 96 AirportNetwork.thyFlight.wlan[0].mac.dcf.channelAccess.pendingQueue outgoingDataRate:vector ETV
attr interpolationmode linear
attr recordingmode vector
attr source throughput(packetPulled)
attr title "outgoing datarate"
attr unit bps
vector 97 AirportNetwork.thyFlight.wlan[0].mac.dcf datarateSelected:vector ETV
attr interpolationmode none
attr recordingmode vector
attr title "datarates selected"
vector 98 AirportNetwork.thyFlight.wlan[0].mac packetSentToLower:vector(packetBytes) ETV
attr interpolationmode none
attr recordingmode vector(packetBytes)
attr title "packets sent to lower layer, packetBytes"
vector 99 AirportNetwork.thyFlight.wlan[0].radio transmissionState:vector ETV
attr interpolationmode sample-hold
attr recordingmode vector
attr source transmissionStateChanged
attr title "Radio transmission state"
vector 100 AirportNetwork.thyFlight.wlan[0].mac.dcf packetSentToPeer:vector(packetBytes) ETV
attr interpolationmode none
attr recordingmode vector(packetBytes)
attr title "packets sent, packetBytes"
vector 101 AirportNetwork.thyFlight.wlan[0].mac.dcf packetSentToPeerMulticast:vector(packetBytes) ETV
attr interpolationmode none
attr recordingmode vector(packetBytes)
attr source ieee80211Multicast(packetSentToPeer)
attr title "packets sent: multicast, packetBytes"
vector 102 AirportNetwork.thyFlight.wlan[0].mac.dcf packetSentToPeerBroadcast:vector(packetBytes) ETV
attr interpolationmode none
attr recordingmode vector(packetBytes)
attr source ieee80211Broadcast(packetSentToPeer)
attr title "packets sent: broadcast , packetBytes"
vector 103 AirportNetwork.thyFlight.wlan[0].mac.dcf packetSentToPeerWithoutRetry:vector(packetBytes) ETV
attr interpolationmode none
attr recordingmode vector(packetBytes)
attr source ieee80211NotRetry(packetSentToPeer)
attr title "packets sent: without retry, packetBytes"
vector 104 AirportNetwork.thyFlight.wlan[0].mac.dcf.channelAccess.inProgressFrames queueingTime:vector ETV
attr interpolationmode none
attr recordingmode vector
attr source queueingTime(packetDequeued)
attr title "queueing times"
vector 105 AirportNetwork.atmSawAP.wlan[0].mac packetReceivedFromLower:vector(packetBytes) ETV
attr interpolationmode none
attr recordingmode vector(packetBytes)
attr title "packets received from lower layer, packetBytes"
vector 106 AirportNetwork.atmSawAP.wlan[0].mac.dcf packetReceivedFromPeer:vector(packetBytes) ETV
attr interpolationmode none
attr recordingmode vector(packetBytes)
attr title "packets received, packetBytes"
vector 107 AirportNetwork.atmSawAP.wlan[0].mac.dcf packetReceivedFromPeerMulticast:vector(packetBytes) ETV
attr interpolationmode none
attr recordingmode vector(packetBytes)
attr source ieee80211Multicast(packetReceivedFromPeer)
attr title "packets received: multicast, packetBytes"
vector 108 AirportNetwork.atmSawAP.wlan[0].mac.dcf packetReceivedFromPeerBroadcast:vector(packetBytes) ETV
attr interpolationmode none
attr recordingmode vector(packetBytes)
attr source ieee80211Broadcast(packetReceivedFromPeer)
attr title "packets received: broadcast, packetBytes"
vector 109 AirportNetwork.atmSawAP.wlan[0].mac.dcf packetReceivedFromPeerWithoutRetry:vector(packetBytes) ETV
attr interpolationmode none
attr recordingmode vector(packetBytes)
attr source ieee80211NotRetry(packetReceivedFromPeer)
attr title "packets received: without retry, packetBytes"
vector 110 AirportNetwork.atmSawAP.wlan[0].mac.dcf packetSentToPeerUnicast:vector(packetBytes) ETV
attr interpolationmode none
attr recordingmode vector(packetBytes)
attr source ieee80211Unicast(packetSentToPeer)
attr title "packets sent: unicast, packetBytes"
vector 111 AirportNetwork.atmSawAP.wlan[0].mac.rx nav:vector ETV
attr interpolationmode linear
attr recordingmode vector
attr source navChanged
attr title "network allocation vector"
vector 112 AirportNetwork.thyFlight.wlan[0].mac.dcf packetReceivedFromPeerUnicast:vector(packetBytes) ETV
attr interpolationmode none
attr recordingmode vector(packetBytes)
attr source ieee80211Unicast(packetReceivedFromPeer)
attr title "packets received: unicast, packetBytes"
vector 113 AirportNetwork.thyFlight.wlan[0].mac.dcf packetSentToPeerUnicast:vector(packetBytes) ETV
attr interpolationmode none
attr recordingmode vector(packetBytes)
attr source ieee80211Unicast(packetSentToPeer)
attr title "packets sent: unicast, packetBytes"
vector 114 AirportNetwork.atmSawAP.wlan[0].mac.dcf packetReceivedFromPeerUnicast:vector(packetBytes) ETV
attr interpolationmode none
attr recordingmode vector(packetBytes)
attr source ieee80211Unicast(packetReceivedFromPeer)
attr title "packets received: unicast, packetBytes"
vector 115 AirportNetwork.thyFlight.wlan[0].agent acceptConfirm:vector ETV
attr recordingmode vector
attr title "accepted confirms"
vector 116 AirportNetwork.thyFlight.wlan[0].mac.rx nav:vector ETV
attr interpolationmode linear
attr recordingmode vector
attr source navChanged
attr title "network allocation vector"
0	0	0	0
1	0	0	0
2	0	0	0
3	0	0	0
4	0	0	0
5	0	0	0
6	0	0	0
6	0	0	0
6	17	0.064589411509	1
6	22	0.064635411509	0
6	45	0.164589411509	1
6	50	0.164635411509	0
6	77	0.264589411509	1
6	82	0.264635411509	0
6	105	0.287177351557	1
6	125	0.287267836833	0
6	146	0.364589411509	1
6	151	0.364635411509	0
6	175	0.464589411509	1
6	180	0.464635411509	0
6	203	0.564589411509	1
6	208	0.564635411509	0
6	234	0.664589411509	1
6	239	0.664635411509	0
6	273	0.764589411509	1
6	278	0.764635411509	0
6	302	0.864589411509	1
6	307	0.864635411509	0
6	341	0.964589411509	1
6	346	0.964635411509	0
6	367	1.064589411509	1
6	372	1.064635411509	0
6	396	1.164589411509	1
6	401	1.164635411509	0
6	435	1.264589411509	1
6	440	1.264635411509	0
6	464	1.364589411509	1
6	469	1.364635411509	0
6	503	1.464589411509	1
6	508	1.464635411509	0
6	529	1.564589411509	1
6	534	1.564635411509	0
6	558	1.664589411509	1
6	563	1.664635411509	0
6	597	1.764589411509	1
6	602	1.764635411509	0
6	626	1.864589411509	1
6	631	1.864635411509	0
6	665	1.964589411509	1
6	670	1.964635411509	0
6	691	2.064589411509	1
6	696	2.064635411509	0
6	720	2.164589411509	1
6	725	2.164635411509	0
6	759	2.264589411509	1
6	764	2.264635411509	0
6	788	2.364589411509	1
6	793	2.364635411509	0
6	827	2.464589411509	1
6	832	2.464635411509	0
6	853	2.564589411509	1
6	858	2.564635411509	0
6	882	2.664589411509	1
6	887	2.664635411509	0
6	921	2.764589411509	1
6	926	2.764635411509	0
6	950	2.864589411509	1
6	955	2.864635411509	0
6	989	2.964589411509	1
6	994	2.964635411509	0
6	1015	3.064589411509	1
6	1020	3.064635411509	0
6	1044	3.164589411509	1
6	1049	3.164635411509	0
6	1083	3.264589411509	1
6	1088	3.264635411509	0
6	1112	3.364589411509	1
6	1117	3.364635411509	0
6	1151	3.464589411509	1
6	1156	3.464635411509	0
6	1177	3.564589411509	1
6	1182	3.564635411509	0
6	1218	3.587285351557	1
6	1239	3.587371836833	0
6	1266	3.587617836833	1
6	1291	3.587704322109	0
6	1318	3.588030322109	1
6	1339	3.588116807385	0
6	1369	3.664589411509	1
6	1374	3.664635411509	0
6	1397	3.764589411509	1
6	1402	3.764635411509	0
6	1425	3.864589411509	1
6	1430	3.864635411509	0
6	1453	3.964589411509	1
6	1458	3.964635411509	0
6	1481	4.064589411509	1
6	1486	4.064635411509	0
6	1509	4.164589411509	1
6	1514	4.164635411509	0
6	1537	4.264589411509	1
6	1542	4.264635411509	0
6	1565	4.364589411509	1
6	1570	4.364635411509	0
6	1593	4.464589411509	1
6	1598	4.464635411509	0
6	1621	4.564589411509	1
6	1626	4.564635411509	0
6	1649	4.664589411509	1
6	1654	4.664635411509	0
6	1677	4.764589411509	1
6	1682	4.764635411509	0
6	1705	4.864589411509	1
6	1710	4.864635411509	0
6	1733	4.964589411509	1
6	1738	4.964635411509	0
6	1761	5.064589411509	1
6	1766	5.064635411509	0
6	1789	5.164589411509	1
6	1794	5.164635411509	0
6	1817	5.264589411509	1
6	1822	5.264635411509	0
6	1845	5.364589411509	1
6	1850	5.364635411509	0
6	1873	5.464589411509	1
6	1878	5.464635411509	0
6	1901	5.564589411509	1
6	1906	5.564635411509	0
6	1929	5.664589411509	1
6	1934	5.664635411509	0
6	1957	5.764589411509	1
6	1962	5.764635411509	0
6	1985	5.864589411509	1
6	1990	5.864635411509	0
6	2013	5.964589411509	1
6	2018	5.964635411509	0
6	2041	6.064589411509	1
6	2046	6.064635411509	0
6	2069	6.164589411509	1
6	2074	6.164635411509	0
6	2097	6.264589411509	1
6	2102	6.264635411509	0
6	2125	6.364589411509	1
6	2130	6.364635411509	0
6	2153	6.464589411509	1
6	2158	6.464635411509	0
6	2181	6.564589411509	1
6	2186	6.564635411509	0
6	2209	6.664589411509	1
6	2214	6.664635411509	0
6	2237	6.764589411509	1
6	2242	6.764635411509	0
6	2265	6.864589411509	1
6	2270	6.864635411509	0
6	2293	6.964589411509	1
6	2298	6.964635411509	0
6	2321	7.064589411509	1
6	2326	7.064635411509	0
6	2349	7.164589411509	1
6	2354	7.164635411509	0
6	2377	7.264589411509	1
6	2382	7.264635411509	0
6	2405	7.364589411509	1
6	2410	7.364635411509	0
6	2433	7.464589411509	1
6	2438	7.464635411509	0
6	2461	7.564589411509	1
6	2466	7.564635411509	0
6	2489	7.664589411509	1
6	2494	7.664635411509	0
6	2517	7.764589411509	1
6	2522	7.764635411509	0
6	2545	7.864589411509	1
6	2550	7.864635411509	0
6	2573	7.964589411509	1
6	2578	7.964635411509	0
6	2601	8.064589411509	1
6	2606	8.064635411509	0
6	2629	8.164589411509	1
6	2634	8.164635411509	0
6	2657	8.264589411509	1
6	2662	8.264635411509	0
6	2685	8.364589411509	1
6	2690	8.364635411509	0
6	2713	8.464589411509	1
6	2718	8.464635411509	0
6	2741	8.564589411509	1
6	2746	8.564635411509	0
6	2769	8.664589411509	1
6	2774	8.664635411509	0
6	2797	8.764589411509	1
6	2802	8.764635411509	0
6	2825	8.864589411509	1
6	2830	8.864635411509	0
6	2853	8.964589411509	1
6	2858	8.964635411509	0
6	2881	9.064589411509	1
6	2886	9.064635411509	0
6	2909	9.164589411509	1
6	2914	9.164635411509	0
6	2937	9.264589411509	1
6	2942	9.264635411509	0
6	2965	9.364589411509	1
6	2970	9.364635411509	0
6	2993	9.464589411509	1
6	2998	9.464635411509	0
6	3021	9.564589411509	1
6	3026	9.564635411509	0
6	3049	9.664589411509	1
6	3054	9.664635411509	0
6	3077	9.764589411509	1
6	3082	9.764635411509	0
6	3105	9.864589411509	1
6	3110	9.864635411509	0
6	3133	9.964589411509	1
6	3138	9.964635411509	0
6	3161	10.064589411509	1
6	3166	10.064635411509	0
6	3189	10.164589411509	1
6	3194	10.164635411509	0
6	3217	10.264589411509	1
6	3222	10.264635411509	0
6	3245	10.364589411509	1
6	3250	10.364635411509	0
6	3273	10.464589411509	1
6	3278	10.464635411509	0
6	3301	10.564589411509	1
6	3306	10.564635411509	0
6	3329	10.664589411509	1
6	3334	10.664635411509	0
6	3357	10.764589411509	1
6	3362	10.764635411509	0
6	3385	10.864589411509	1
6	3390	10.864635411509	0
6	3413	10.964589411509	1
6	3418	10.964635411509	0
6	3441	11.064589411509	1
6	3446	11.064635411509	0
6	3469	11.164589411509	1
6	3474	11.164635411509	0
6	3497	11.264589411509	1
6	3502	11.264635411509	0
6	3525	11.364589411509	1
6	3530	11.364635411509	0
6	3553	11.464589411509	1
6	3558	11.464635411509	0
6	3581	11.564589411509	1
6	3586	11.564635411509	0
6	3609	11.664589411509	1
6	3614	11.664635411509	0
6	3637	11.764589411509	1
6	3642	11.764635411509	0
6	3665	11.864589411509	1
6	3670	11.864635411509	0
6	3693	11.964589411509	1
6	3698	11.964635411509	0
6	3721	12.064589411509	1
6	3726	12.064635411509	0
6	3749	12.164589411509	1
6	3754	12.164635411509	0
6	3777	12.264589411509	1
6	3782	12.264635411509	0
6	3805	12.364589411509	1
6	3810	12.364635411509	0
6	3833	12.464589411509	1
6	3838	12.464635411509	0
6	3861	12.564589411509	1
6	3866	12.564635411509	0
6	3889	12.664589411509	1
6	3894	12.664635411509	0
6	3917	12.764589411509	1
6	3922	12.764635411509	0
6	3945	12.864589411509	1
6	3950	12.864635411509	0
6	3973	12.964589411509	1
6	3978	12.964635411509	0
6	4001	13.064589411509	1
6	4006	13.064635411509	0
6	4029	13.164589411509	1
6	4034	13.164635411509	0
6	4057	13.264589411509	1
6	4062	13.264635411509	0
6	4085	13.364589411509	1
6	4090	13.364635411509	0
6	4113	13.464589411509	1
6	4118	13.464635411509	0
6	4141	13.564589411509	1
6	4146	13.564635411509	0
6	4169	13.664589411509	1
6	4174	13.664635411509	0
6	4197	13.764589411509	1
6	4202	13.764635411509	0
6	4225	13.864589411509	1
6	4230	13.864635411509	0
6	4253	13.964589411509	1
6	4258	13.964635411509	0
6	4281	14.064589411509	1
6	4286	14.064635411509	0
6	4309	14.164589411509	1
6	4314	14.164635411509	0
6	4337	14.264589411509	1
6	4342	14.264635411509	0
6	4365	14.364589411509	1
6	4370	14.364635411509	0
6	4393	14.464589411509	1
6	4398	14.464635411509	0
6	4421	14.564589411509	1
6	4426	14.564635411509	0
6	4449	14.664589411509	1
6	4454	14.664635411509	0
6	4477	14.764589411509	1
6	4482	14.764635411509	0
6	4505	14.864589411509	1
6	4510	14.864635411509	0
6	4533	14.964589411509	1
6	4538	14.964635411509	0
6	4561	15.064589411509	1
6	4566	15.064635411509	0
6	4589	15.164589411509	1
6	4594	15.164635411509	0
6	4617	15.264589411509	1
6	4622	15.264635411509	0
6	4645	15.364589411509	1
6	4650	15.364635411509	0
6	4673	15.464589411509	1
6	4678	15.464635411509	0
6	4701	15.564589411509	1
6	4706	15.564635411509	0
6	4729	15.664589411509	1
6	4734	15.664635411509	0
6	4757	15.764589411509	1
6	4762	15.764635411509	0
6	4785	15.864589411509	1
6	4790	15.864635411509	0
6	4813	15.964589411509	1
6	4818	15.964635411509	0
6	4841	16.064589411509	1
6	4846	16.064635411509	0
6	4869	16.164589411509	1
6	4874	16.164635411509	0
6	4897	16.264589411509	1
6	4902	16.264635411509	0
6	4925	16.364589411509	1
6	4930	16.364635411509	0
6	4953	16.464589411509	1
6	4958	16.464635411509	0
6	4981	16.564589411509	1
6	4986	16.564635411509	0
6	5009	16.664589411509	1
6	5014	16.664635411509	0
6	5037	16.764589411509	1
6	5042	16.764635411509	0
6	5065	16.864589411509	1
6	5070	16.864635411509	0
6	5093	16.964589411509	1
6	5098	16.964635411509	0
6	5121	17.064589411509	1
6	5126	17.064635411509	0
6	5149	17.164589411509	1
6	5154	17.164635411509	0
6	5177	17.264589411509	1
6	5182	17.264635411509	0
6	5205	17.364589411509	1
6	5210	17.364635411509	0
6	5233	17.464589411509	1
6	5238	17.464635411509	0
6	5261	17.564589411509	1
6	5266	17.564635411509	0
6	5289	17.664589411509	1
6	5294	17.664635411509	0
6	5317	17.764589411509	1
6	5322	17.764635411509	0
6	5345	17.864589411509	1
6	5350	17.864635411509	0
6	5373	17.964589411509	1
6	5378	17.964635411509	0
6	5401	18.064589411509	1
6	5406	18.064635411509	0
6	5429	18.164589411509	1
6	5434	18.164635411509	0
6	5457	18.264589411509	1
6	5462	18.264635411509	0
6	5485	18.364589411509	1
6	5490	18.364635411509	0
6	5513	18.464589411509	1
6	5518	18.464635411509	0
6	5541	18.564589411509	1
6	5546	18.564635411509	0
6	5569	18.664589411509	1
6	5574	18.664635411509	0
6	5597	18.764589411509	1
6	5602	18.764635411509	0
6	5625	18.864589411509	1
6	5630	18.864635411509	0
6	5653	18.964589411509	1
6	5658	18.964635411509	0
6	5681	19.064589411509	1
6	5686	19.064635411509	0
6	5709	19.164589411509	1
6	5714	19.164635411509	0
6	5737	19.264589411509	1
6	5742	19.264635411509	0
6	5765	19.364589411509	1
6	5770	19.364635411509	0
6	5793	19.464589411509	1
6	5798	19.464635411509	0
6	5821	19.564589411509	1
6	5826	19.564635411509	0
6	5849	19.664589411509	1
6	5854	19.664635411509	0
6	5877	19.764589411509	1
6	5882	19.764635411509	0
6	5905	19.864589411509	1
6	5910	19.864635411509	0
6	5933	19.964589411509	1
6	5938	19.964635411509	0
6	5961	20.064589411509	1
6	5966	20.064635411509	0
6	5989	20.164589411509	1
6	5994	20.164635411509	0
6	6017	20.264589411509	1
6	6022	20.264635411509	0
6	6045	20.364589411509	1
6	6050	20.364635411509	0
6	6073	20.464589411509	1
6	6078	20.464635411509	0
6	6101	20.564589411509	1
6	6106	20.564635411509	0
6	6129	20.664589411509	1
6	6134	20.664635411509	0
6	6157	20.764589411509	1
6	6162	20.764635411509	0
6	6185	20.864589411509	1
6	6190	20.864635411509	0
6	6213	20.964589411509	1
6	6218	20.964635411509	0
6	6241	21.064589411509	1
6	6246	21.064635411509	0
6	6269	21.164589411509	1
6	6274	21.164635411509	0
6	6297	21.264589411509	1
6	6302	21.264635411509	0
6	6325	21.364589411509	1
6	6330	21.364635411509	0
6	6353	21.464589411509	1
6	6358	21.464635411509	0
6	6381	21.564589411509	1
6	6386	21.564635411509	0
6	6409	21.664589411509	1
6	6414	21.664635411509	0
6	6437	21.764589411509	1
6	6442	21.764635411509	0
6	6465	21.864589411509	1
6	6470	21.864635411509	0
6	6493	21.964589411509	1
6	6498	21.964635411509	0
6	6521	22.064589411509	1
6	6526	22.064635411509	0
6	6549	22.164589411509	1
6	6554	22.164635411509	0
6	6577	22.264589411509	1
6	6582	22.264635411509	0
6	6605	22.364589411509	1
6	6610	22.364635411509	0
6	6633	22.464589411509	1
6	6638	22.464635411509	0
6	6661	22.564589411509	1
6	6666	22.564635411509	0
6	6689	22.664589411509	1
6	6694	22.664635411509	0
6	6717	22.764589411509	1
6	6722	22.764635411509	0
6	6745	22.864589411509	1
6	6750	22.864635411509	0
6	6773	22.964589411509	1
6	6778	22.964635411509	0
6	6801	23.064589411509	1
6	6806	23.064635411509	0
6	6829	23.164589411509	1
6	6834	23.164635411509	0
6	6857	23.264589411509	1
6	6862	23.264635411509	0
6	6885	23.364589411509	1
6	6890	23.364635411509	0
6	6913	23.464589411509	1
6	6918	23.464635411509	0
6	6941	23.564589411509	1
6	6946	23.564635411509	0
6	6969	23.664589411509	1
6	6974	23.664635411509	0
6	6997	23.764589411509	1
6	7002	23.764635411509	0
6	7025	23.864589411509	1
6	7030	23.864635411509	0
6	7053	23.964589411509	1
6	7058	23.964635411509	0
6	7081	24.064589411509	1
6	7086	24.064635411509	0
6	7109	24.164589411509	1
6	7114	24.164635411509	0
6	7137	24.264589411509	1
6	7142	24.264635411509	0
6	7165	24.364589411509	1
6	7170	24.364635411509	0
6	7193	24.464589411509	1
6	7198	24.464635411509	0
6	7221	24.564589411509	1
6	7226	24.564635411509	0
6	7249	24.664589411509	1
6	7254	24.664635411509	0
6	7277	24.764589411509	1
6	7282	24.764635411509	0
6	7305	24.864589411509	1
6	7310	24.864635411509	0
6	7333	24.964589411509	1
6	7338	24.964635411509	0
6	7361	25.064589411509	1
6	7366	25.064635411509	0
6	7389	25.164589411509	1
6	7394	25.164635411509	0
6	7417	25.264589411509	1
6	7422	25.264635411509	0
6	7445	25.364589411509	1
6	7450	25.364635411509	0
6	7473	25.464589411509	1
6	7478	25.464635411509	0
6	7501	25.564589411509	1
6	7506	25.564635411509	0
6	7529	25.664589411509	1
6	7534	25.664635411509	0
6	7557	25.764589411509	1
6	7562	25.764635411509	0
6	7585	25.864589411509	1
6	7590	25.864635411509	0
6	7613	25.964589411509	1
6	7618	25.964635411509	0
6	7641	26.064589411509	1
6	7646	26.064635411509	0
6	7669	26.164589411509	1
6	7674	26.164635411509	0
6	7697	26.264589411509	1
6	7702	26.264635411509	0
6	7725	26.364589411509	1
6	7730	26.364635411509	0
6	7753	26.464589411509	1
6	7758	26.464635411509	0
6	7781	26.564589411509	1
6	7786	26.564635411509	0
6	7809	26.664589411509	1
6	7814	26.664635411509	0
6	7837	26.764589411509	1
6	7842	26.764635411509	0
6	7865	26.864589411509	1
6	7870	26.864635411509	0
6	7893	26.964589411509	1
6	7898	26.964635411509	0
6	7921	27.064589411509	1
6	7926	27.064635411509	0
6	7949	27.164589411509	1
6	7954	27.164635411509	0
6	7977	27.264589411509	1
6	7982	27.264635411509	0
6	8005	27.364589411509	1
6	8010	27.364635411509	0
6	8033	27.464589411509	1
6	8038	27.464635411509	0
6	8061	27.564589411509	1
6	8066	27.564635411509	0
6	8089	27.664589411509	1
6	8094	27.664635411509	0
6	8117	27.764589411509	1
6	8122	27.764635411509	0
6	8145	27.864589411509	1
6	8150	27.864635411509	0
6	8173	27.964589411509	1
6	8178	27.964635411509	0
6	8201	28.064589411509	1
6	8206	28.064635411509	0
6	8229	28.164589411509	1
6	8234	28.164635411509	0
6	8257	28.264589411509	1
6	8262	28.264635411509	0
6	8285	28.364589411509	1
6	8290	28.364635411509	0
6	8313	28.464589411509	1
6	8318	28.464635411509	0
6	8341	28.564589411509	1
6	8346	28.564635411509	0
6	8369	28.664589411509	1
6	8374	28.664635411509	0
6	8397	28.764589411509	1
6	8402	28.764635411509	0
6	8425	28.864589411509	1
6	8430	28.864635411509	0
6	8453	28.964589411509	1
6	8458	28.964635411509	0
6	8481	29.064589411509	1
6	8486	29.064635411509	0
6	8509	29.164589411509	1
6	8514	29.164635411509	0
6	8537	29.264589411509	1
6	8542	29.264635411509	0
6	8565	29.364589411509	1
6	8570	29.364635411509	0
6	8593	29.464589411509	1
6	8598	29.464635411509	0
6	8621	29.564589411509	1
6	8626	29.564635411509	0
6	8649	29.664589411509	1
6	8654	29.664635411509	0
6	8677	29.764589411509	1
6	8682	29.764635411509	0
6	8705	29.864589411509	1
6	8710	29.864635411509	0
6	8733	29.964589411509	1
6	8738	29.964635411509	0
6	8761	30.064589411509	1
6	8766	30.064635411509	0
6	8789	30.164589411509	1
6	8794	30.164635411509	0
6	8817	30.264589411509	1
6	8822	30.264635411509	0
6	8845	30.364589411509	1
6	8850	30.364635411509	0
6	8873	30.464589411509	1
6	8878	30.464635411509	0
6	8901	30.564589411509	1
6	8906	30.564635411509	0
6	8929	30.664589411509	1
6	8934	30.664635411509	0
6	8957	30.764589411509	1
6	8962	30.764635411509	0
6	8985	30.864589411509	1
6	8990	30.864635411509	0
6	9013	30.964589411509	1
6	9018	30.964635411509	0
6	9041	31.064589411509	1
6	9046	31.064635411509	0
6	9069	31.164589411509	1
6	9074	31.164635411509	0
6	9097	31.264589411509	1
6	9102	31.264635411509	0
6	9125	31.364589411509	1
6	9130	31.364635411509	0
6	9153	31.464589411509	1
6	9158	31.464635411509	0
6	9181	31.564589411509	1
6	9186	31.564635411509	0
6	9209	31.664589411509	1
6	9214	31.664635411509	0
6	9237	31.764589411509	1
6	9242	31.764635411509	0
6	9265	31.864589411509	1
6	9270	31.864635411509	0
6	9293	31.964589411509	1
6	9298	31.964635411509	0
6	9321	32.064589411509	1
6	9326	32.064635411509	0
6	9349	32.164589411509	1
6	9354	32.164635411509	0
6	9377	32.264589411509	1
6	9382	32.264635411509	0
6	9405	32.364589411509	1
6	9410	32.364635411509	0
6	9433	32.464589411509	1
6	9438	32.464635411509	0
6	9461	32.564589411509	1
6	9466	32.564635411509	0
6	9489	32.664589411509	1
6	9494	32.664635411509	0
6	9517	32.764589411509	1
6	9522	32.764635411509	0
6	9545	32.864589411509	1
6	9550	32.864635411509	0
6	9573	32.964589411509	1
6	9578	32.964635411509	0
6	9601	33.064589411509	1
6	9606	33.064635411509	0
6	9629	33.164589411509	1
6	9634	33.164635411509	0
6	9657	33.264589411509	1
6	9662	33.264635411509	0
6	9685	33.364589411509	1
6	9690	33.364635411509	0
6	9713	33.464589411509	1
6	9718	33.464635411509	0
6	9741	33.564589411509	1
6	9746	33.564635411509	0
6	9769	33.664589411509	1
6	9774	33.664635411509	0
6	9797	33.764589411509	1
6	9802	33.764635411509	0
6	9825	33.864589411509	1
6	9830	33.864635411509	0
6	9853	33.964589411509	1
6	9858	33.964635411509	0
6	9881	34.064589411509	1
6	9886	34.064635411509	0
6	9909	34.164589411509	1
6	9914	34.164635411509	0
6	9937	34.264589411509	1
6	9942	34.264635411509	0
6	9965	34.364589411509	1
6	9970	34.364635411509	0
6	9993	34.464589411509	1
6	9998	34.464635411509	0
6	10021	34.564589411509	1
6	10026	34.564635411509	0
6	10049	34.664589411509	1
6	10054	34.664635411509	0
7	0	0	0
7	0	0	0
7	17	0.064589411509	1
7	22	0.064635411509	0
7	45	0.164589411509	1
7	50	0.164635411509	0
7	77	0.264589411509	1
7	82	0.264635411509	0
7	105	0.287177351557	1
7	125	0.287267836833	0
7	146	0.364589411509	1
7	151	0.364635411509	0
7	175	0.464589411509	1
7	180	0.464635411509	0
7	203	0.564589411509	1
7	208	0.564635411509	0
7	234	0.664589411509	1
7	239	0.664635411509	0
7	273	0.764589411509	1
7	278	0.764635411509	0
7	302	0.864589411509	1
7	307	0.864635411509	0
7	341	0.964589411509	1
7	346	0.964635411509	0
7	367	1.064589411509	1
7	372	1.064635411509	0
7	396	1.164589411509	1
7	401	1.164635411509	0
7	435	1.264589411509	1
7	440	1.264635411509	0
7	464	1.364589411509	1
7	469	1.364635411509	0
7	503	1.464589411509	1
7	508	1.464635411509	0
7	529	1.564589411509	1
7	534	1.564635411509	0
7	558	1.664589411509	1
7	563	1.664635411509	0
7	597	1.764589411509	1
7	602	1.764635411509	0
7	626	1.864589411509	1
7	631	1.864635411509	0
7	665	1.964589411509	1
7	670	1.964635411509	0
7	691	2.064589411509	1
7	696	2.064635411509	0
7	720	2.164589411509	1
7	725	2.164635411509	0
7	759	2.264589411509	1
7	764	2.264635411509	0
7	788	2.364589411509	1
7	793	2.364635411509	0
7	827	2.464589411509	1
7	832	2.464635411509	0
7	853	2.564589411509	1
7	858	2.564635411509	0
7	882	2.664589411509	1
7	887	2.664635411509	0
7	921	2.764589411509	1
7	926	2.764635411509	0
7	950	2.864589411509	1
7	955	2.864635411509	0
7	989	2.964589411509	1
7	994	2.964635411509	0
7	1015	3.064589411509	1
7	1020	3.064635411509	0
7	1044	3.164589411509	1
7	1049	3.164635411509	0
7	1083	3.264589411509	1
7	1088	3.264635411509	0
7	1112	3.364589411509	1
7	1117	3.364635411509	0
7	1151	3.464589411509	1
7	1156	3.464635411509	0
7	1177	3.564589411509	1
7	1182	3.564635411509	0
7	1218	3.587285351557	1
7	1239	3.587371836833	0
7	1266	3.587617836833	1
7	1291	3.587704322109	0
7	1318	3.588030322109	1
7	1339	3.588116807385	0
7	1369	3.664589411509	1
7	1374	3.664635411509	0
7	1397	3.764589411509	1
7	1402	3.764635411509	0
7	1425	3.864589411509	1
7	1430	3.864635411509	0
7	1453	3.964589411509	1
7	1458	3.964635411509	0
7	1481	4.064589411509	1
7	1486	4.064635411509	0
7	1509	4.164589411509	1
7	1514	4.164635411509	0
7	1537	4.264589411509	1
7	1542	4.264635411509	0
7	1565	4.364589411509	1
7	1570	4.364635411509	0
7	1593	4.464589411509	1
7	1598	4.464635411509	0
7	1621	4.564589411509	1
7	1626	4.564635411509	0
7	1649	4.664589411509	1
7	1654	4.664635411509	0
7	1677	4.764589411509	1
7	1682	4.764635411509	0
7	1705	4.864589411509	1
7	1710	4.864635411509	0
7	1733	4.964589411509	1
7	1738	4.964635411509	0
7	1761	5.064589411509	1
7	1766	5.064635411509	0
7	1789	5.164589411509	1
7	1794	5.164635411509	0
7	1817	5.264589411509	1
7	1822	5.264635411509	0
7	1845	5.364589411509	1
7	1850	5.364635411509	0
7	1873	5.464589411509	1
7	1878	5.464635411509	0
7	1901	5.564589411509	1
7	1906	5.564635411509	0
7	1929	5.664589411509	1
7	1934	5.664635411509	0
7	1957	5.764589411509	1
7	1962	5.764635411509	0
7	1985	5.864589411509	1
7	1990	5.864635411509	0
7	2013	5.964589411509	1
7	2018	5.964635411509	0
7	2041	6.064589411509	1
7	2046	6.064635411509	0
7	2069	6.164589411509	1
7	2074	6.164635411509	0
7	2097	6.264589411509	1
7	2102	6.264635411509	0
7	2125	6.364589411509	1
7	2130	6.364635411509	0
7	2153	6.464589411509	1
7	2158	6.464635411509	0
7	2181	6.564589411509	1
7	2186	6.564635411509	0
7	2209	6.664589411509	1
7	2214	6.664635411509	0
7	2237	6.764589411509	1
7	2242	6.764635411509	0
7	2265	6.864589411509	1
7	2270	6.864635411509	0
7	2293	6.964589411509	1
7	2298	6.964635411509	0
7	2321	7.064589411509	1
7	2326	7.064635411509	0
7	2349	7.164589411509	1
7	2354	7.164635411509	0
7	2377	7.264589411509	1
7	2382	7.264635411509	0
7	2405	7.364589411509	1
7	2410	7.364635411509	0
7	2433	7.464589411509	1
7	2438	7.464635411509	0
7	2461	7.564589411509	1
7	2466	7.564635411509	0
7	2489	7.664589411509	1
7	2494	7.664635411509	0
7	2517	7.764589411509	1
7	2522	7.764635411509	0
7	2545	7.864589411509	1
7	2550	7.864635411509	0
7	2573	7.964589411509	1
7	2578	7.964635411509	0
7	2601	8.064589411509	1
7	2606	8.064635411509	0
7	2629	8.164589411509	1
7	2634	8.164635411509	0
7	2657	8.264589411509	1
7	2662	8.264635411509	0
7	2685	8.364589411509	1
7	2690	8.364635411509	0
7	2713	8.464589411509	1
7	2718	8.464635411509	0
7	2741	8.564589411509	1
7	2746	8.564635411509	0
7	2769	8.664589411509	1
7	2774	8.664635411509	0
7	2797	8.764589411509	1
7	2802	8.764635411509	0
7	2825	8.864589411509	1
7	2830	8.864635411509	0
7	2853	8.964589411509	1
7	2858	8.964635411509	0
7	2881	9.064589411509	1
7	2886	9.064635411509	0
7	2909	9.164589411509	1
7	2914	9.164635411509	0
7	2937	9.264589411509	1
7	2942	9.264635411509	0
7	2965	9.364589411509	1
7	2970	9.364635411509	0
7	2993	9.464589411509	1
7	2998	9.464635411509	0
7	3021	9.564589411509	1
7	3026	9.564635411509	0
7	3049	9.664589411509	1
7	3054	9.664635411509	0
7	3077	9.764589411509	1
7	3082	9.764635411509	0
7	3105	9.864589411509	1
7	3110	9.864635411509	0
7	3133	9.964589411509	1
7	3138	9.964635411509	0
7	3161	10.064589411509	1
7	3166	10.064635411509	0
7	3189	10.164589411509	1
7	3194	10.164635411509	0
7	3217	10.264589411509	1
7	3222	10.264635411509	0
7	3245	10.364589411509	1
7	3250	10.364635411509	0
7	3273	10.464589411509	1
7	3278	10.464635411509	0
7	3301	10.564589411509	1
7	3306	10.564635411509	0
7	3329	10.664589411509	1
7	3334	10.664635411509	0
7	3357	10.764589411509	1
7	3362	10.764635411509	0
7	3385	10.864589411509	1
7	3390	10.864635411509	0
7	3413	10.964589411509	1
7	3418	10.964635411509	0
7	3441	11.064589411509	1
7	3446	11.064635411509	0
7	3469	11.164589411509	1
7	3474	11.164635411509	0
7	3497	11.264589411509	1
7	3502	11.264635411509	0
7	3525	11.364589411509	1
7	3530	11.364635411509	0
7	3553	11.464589411509	1
7	3558	11.464635411509	0
7	3581	11.564589411509	1
7	3586	11.564635411509	0
7	3609	11.664589411509	1
7	3614	11.664635411509	0
7	3637	11.764589411509	1
7	3642	11.764635411509	0
7	3665	11.864589411509	1
7	3670	11.864635411509	0
7	3693	11.964589411509	1
7	3698	11.964635411509	0
7	3721	12.064589411509	1
7	3726	12.064635411509	0
7	3749	12.164589411509	1
7	3754	12.164635411509	0
7	3777	12.264589411509	1
7	3782	12.264635411509	0
7	3805	12.364589411509	1
7	3810	12.364635411509	0
7	3833	12.464589411509	1
7	3838	12.464635411509	0
7	3861	12.564589411509	1
7	3866	12.564635411509	0
7	3889	12.664589411509	1
7	3894	12.664635411509	0
7	3917	12.764589411509	1
7	3922	12.764635411509	0
7	3945	12.864589411509	1
7	3950	12.864635411509	0
7	3973	12.964589411509	1
7	3978	12.964635411509	0
7	4001	13.064589411509	1
7	4006	13.064635411509	0
7	4029	13.164589411509	1
7	4034	13.164635411509	0
7	4057	13.264589411509	1
7	4062	13.264635411509	0
7	4085	13.364589411509	1
7	4090	13.364635411509	0
7	4113	13.464589411509	1
7	4118	13.464635411509	0
7	4141	13.564589411509	1
7	4146	13.564635411509	0
7	4169	13.664589411509	1
7	4174	13.664635411509	0
7	4197	13.764589411509	1
7	4202	13.764635411509	0
7	4225	13.864589411509	1
7	4230	13.864635411509	0
7	4253	13.964589411509	1
7	4258	13.964635411509	0
7	4281	14.064589411509	1
7	4286	14.064635411509	0
7	4309	14.164589411509	1
7	4314	14.164635411509	0
7	4337	14.264589411509	1
7	4342	14.264635411509	0
7	4365	14.364589411509	1
7	4370	14.364635411509	0
7	4393	14.464589411509	1
7	4398	14.464635411509	0
7	4421	14.564589411509	1
7	4426	14.564635411509	0
7	4449	14.664589411509	1
7	4454	14.664635411509	0
7	4477	14.764589411509	1
7	4482	14.764635411509	0
7	4505	14.864589411509	1
7	4510	14.864635411509	0
7	4533	14.964589411509	1
7	4538	14.964635411509	0
7	4561	15.064589411509	1
7	4566	15.064635411509	0
7	4589	15.164589411509	1
7	4594	15.164635411509	0
7	4617	15.264589411509	1
7	4622	15.264635411509	0
7	4645	15.364589411509	1
7	4650	15.364635411509	0
7	4673	15.464589411509	1
7	4678	15.464635411509	0
7	4701	15.564589411509	1
7	4706	15.564635411509	0
7	4729	15.664589411509	1
7	4734	15.664635411509	0
7	4757	15.764589411509	1
7	4762	15.764635411509	0
7	4785	15.864589411509	1
7	4790	15.864635411509	0
7	4813	15.964589411509	1
7	4818	15.964635411509	0
7	4841	16.064589411509	1
7	4846	16.064635411509	0
7	4869	16.164589411509	1
7	4874	16.164635411509	0
7	4897	16.264589411509	1
7	4902	16.264635411509	0
7	4925	16.364589411509	1
7	4930	16.364635411509	0
7	4953	16.464589411509	1
7	4958	16.464635411509	0
7	4981	16.564589411509	1
7	4986	16.564635411509	0
7	5009	16.664589411509	1
7	5014	16.664635411509	0
7	5037	16.764589411509	1
7	5042	16.764635411509	0
7	5065	16.864589411509	1
7	5070	16.864635411509	0
7	5093	16.964589411509	1
7	5098	16.964635411509	0
7	5121	17.064589411509	1
7	5126	17.064635411509	0
7	5149	17.164589411509	1
7	5154	17.164635411509	0
7	5177	17.264589411509	1
7	5182	17.264635411509	0
7	5205	17.364589411509	1
7	5210	17.364635411509	0
7	5233	17.464589411509	1
7	5238	17.464635411509	0
7	5261	17.564589411509	1
7	5266	17.564635411509	0
7	5289	17.664589411509	1
7	5294	17.664635411509	0
7	5317	17.764589411509	1
7	5322	17.764635411509	0
7	5345	17.864589411509	1
7	5350	17.864635411509	0
7	5373	17.964589411509	1
7	5378	17.964635411509	0
7	5401	18.064589411509	1
7	5406	18.064635411509	0
7	5429	18.164589411509	1
7	5434	18.164635411509	0
7	5457	18.264589411509	1
7	5462	18.264635411509	0
7	5485	18.364589411509	1
7	5490	18.364635411509	0
7	5513	18.464589411509	1
7	5518	18.464635411509	0
7	5541	18.564589411509	1
7	5546	18.564635411509	0
7	5569	18.664589411509	1
7	5574	18.664635411509	0
7	5597	18.764589411509	1
7	5602	18.764635411509	0
7	5625	18.864589411509	1
7	5630	18.864635411509	0
7	5653	18.964589411509	1
7	5658	18.964635411509	0
7	5681	19.064589411509	1
7	5686	19.064635411509	0
7	5709	19.164589411509	1
7	5714	19.164635411509	0
7	5737	19.264589411509	1
7	5742	19.264635411509	0
7	5765	19.364589411509	1
7	5770	19.364635411509	0
7	5793	19.464589411509	1
7	5798	19.464635411509	0
7	5821	19.564589411509	1
7	5826	19.564635411509	0
7	5849	19.664589411509	1
7	5854	19.664635411509	0
7	5877	19.764589411509	1
7	5882	19.764635411509	0
7	5905	19.864589411509	1
7	5910	19.864635411509	0
7	5933	19.964589411509	1
7	5938	19.964635411509	0
7	5961	20.064589411509	1
7	5966	20.064635411509	0
7	5989	20.164589411509	1
7	5994	20.164635411509	0
7	6017	20.264589411509	1
7	6022	20.264635411509	0
7	6045	20.364589411509	1
7	6050	20.364635411509	0
7	6073	20.464589411509	1
7	6078	20.464635411509	0
7	6101	20.564589411509	1
7	6106	20.564635411509	0
7	6129	20.664589411509	1
7	6134	20.664635411509	0
7	6157	20.764589411509	1
7	6162	20.764635411509	0
7	6185	20.864589411509	1
7	6190	20.864635411509	0
7	6213	20.964589411509	1
7	6218	20.964635411509	0
7	6241	21.064589411509	1
7	6246	21.064635411509	0
7	6269	21.164589411509	1
7	6274	21.164635411509	0
7	6297	21.264589411509	1
7	6302	21.264635411509	0
7	6325	21.364589411509	1
7	6330	21.364635411509	0
7	6353	21.464589411509	1
7	6358	21.464635411509	0
7	6381	21.564589411509	1
7	6386	21.564635411509	0
7	6409	21.664589411509	1
7	6414	21.664635411509	0
7	6437	21.764589411509	1
7	6442	21.764635411509	0
7	6465	21.864589411509	1
7	6470	21.864635411509	0
7	6493	21.964589411509	1
7	6498	21.964635411509	0
7	6521	22.064589411509	1
7	6526	22.064635411509	0
7	6549	22.164589411509	1
7	6554	22.164635411509	0
7	6577	22.264589411509	1
7	6582	22.264635411509	0
7	6605	22.364589411509	1
7	6610	22.364635411509	0
7	6633	22.464589411509	1
7	6638	22.464635411509	0
7	6661	22.564589411509	1
7	6666	22.564635411509	0
7	6689	22.664589411509	1
7	6694	22.664635411509	0
7	6717	22.764589411509	1
7	6722	22.764635411509	0
7	6745	22.864589411509	1
7	6750	22.864635411509	0
7	6773	22.964589411509	1
7	6778	22.964635411509	0
7	6801	23.064589411509	1
7	6806	23.064635411509	0
7	6829	23.164589411509	1
7	6834	23.164635411509	0
7	6857	23.264589411509	1
7	6862	23.264635411509	0
7	6885	23.364589411509	1
7	6890	23.364635411509	0
7	6913	23.464589411509	1
7	6918	23.464635411509	0
7	6941	23.564589411509	1
7	6946	23.564635411509	0
7	6969	23.664589411509	1
7	6974	23.664635411509	0
7	6997	23.764589411509	1
7	7002	23.764635411509	0
7	7025	23.864589411509	1
7	7030	23.864635411509	0
7	7053	23.964589411509	1
7	7058	23.964635411509	0
7	7081	24.064589411509	1
7	7086	24.064635411509	0
7	7109	24.164589411509	1
7	7114	24.164635411509	0
7	7137	24.264589411509	1
7	7142	24.264635411509	0
7	7165	24.364589411509	1
7	7170	24.364635411509	0
7	7193	24.464589411509	1
7	7198	24.464635411509	0
7	7221	24.564589411509	1
7	7226	24.564635411509	0
7	7249	24.664589411509	1
7	7254	24.664635411509	0
7	7277	24.764589411509	1
7	7282	24.764635411509	0
7	7305	24.864589411509	1
7	7310	24.864635411509	0
7	7333	24.964589411509	1
7	7338	24.964635411509	0
7	7361	25.064589411509	1
7	7366	25.064635411509	0
7	7389	25.164589411509	1
7	7394	25.164635411509	0
7	7417	25.264589411509	1
7	7422	25.264635411509	0
7	7445	25.364589411509	1
7	7450	25.364635411509	0
7	7473	25.464589411509	1
7	7478	25.464635411509	0
7	7501	25.564589411509	1
7	7506	25.564635411509	0
7	7529	25.664589411509	1
7	7534	25.664635411509	0
7	7557	25.764589411509	1
7	7562	25.764635411509	0
7	7585	25.864589411509	1
7	7590	25.864635411509	0
7	7613	25.964589411509	1
7	7618	25.964635411509	0
7	7641	26.064589411509	1
7	7646	26.064635411509	0
7	7669	26.164589411509	1
7	7674	26.164635411509	0
7	7697	26.264589411509	1
7	7702	26.264635411509	0
7	7725	26.364589411509	1
7	7730	26.364635411509	0
7	7753	26.464589411509	1
7	7758	26.464635411509	0
7	7781	26.564589411509	1
7	7786	26.564635411509	0
7	7809	26.664589411509	1
7	7814	26.664635411509	0
7	7837	26.764589411509	1
7	7842	26.764635411509	0
7	7865	26.864589411509	1
7	7870	26.864635411509	0
7	7893	26.964589411509	1
7	7898	26.964635411509	0
7	7921	27.064589411509	1
7	7926	27.064635411509	0
7	7949	27.164589411509	1
7	7954	27.164635411509	0
7	7977	27.264589411509	1
7	7982	27.264635411509	0
7	8005	27.364589411509	1
7	8010	27.364635411509	0
7	8033	27.464589411509	1
7	8038	27.464635411509	0
7	8061	27.564589411509	1
7	8066	27.564635411509	0
7	8089	27.664589411509	1
7	8094	27.664635411509	0
7	8117	27.764589411509	1
7	8122	27.764635411509	0
7	8145	27.864589411509	1
7	8150	27.864635411509	0
7	8173	27.964589411509	1
7	8178	27.964635411509	0
7	8201	28.064589411509	1
7	8206	28.064635411509	0
7	8229	28.164589411509	1
7	8234	28.164635411509	0
7	8257	28.264589411509	1
7	8262	28.264635411509	0
7	8285	28.364589411509	1
7	8290	28.364635411509	0
7	8313	28.464589411509	1
7	8318	28.464635411509	0
7	8341	28.564589411509	1
7	8346	28.564635411509	0
7	8369	28.664589411509	1
7	8374	28.664635411509	0
7	8397	28.764589411509	1
7	8402	28.764635411509	0
7	8425	28.864589411509	1
7	8430	28.864635411509	0
7	8453	28.964589411509	1
7	8458	28.964635411509	0
7	8481	29.064589411509	1
7	8486	29.064635411509	0
7	8509	29.164589411509	1
7	8514	29.164635411509	0
7	8537	29.264589411509	1
7	8542	29.264635411509	0
7	8565	29.364589411509	1
7	8570	29.364635411509	0
7	8593	29.464589411509	1
7	8598	29.464635411509	0
7	8621	29.564589411509	1
7	8626	29.564635411509	0
7	8649	29.664589411509	1
7	8654	29.664635411509	0
7	8677	29.764589411509	1
7	8682	29.764635411509	0
7	8705	29.864589411509	1
7	8710	29.864635411509	0
7	8733	29.964589411509	1
7	8738	29.964635411509	0
7	8761	30.064589411509	1
7	8766	30.064635411509	0
7	8789	30.164589411509	1
7	8794	30.164635411509	0
7	8817	30.264589411509	1
7	8822	30.264635411509	0
7	8845	30.364589411509	1
7	8850	30.364635411509	0
7	8873	30.464589411509	1
7	8878	30.464635411509	0
7	8901	30.564589411509	1
7	8906	30.564635411509	0
7	8929	30.664589411509	1
7	8934	30.664635411509	0
7	8957	30.764589411509	1
7	8962	30.764635411509	0
7	8985	30.864589411509	1
7	8990	30.864635411509	0
7	9013	30.964589411509	1
7	9018	30.964635411509	0
7	9041	31.064589411509	1
7	9046	31.064635411509	0
7	9069	31.164589411509	1
7	9074	31.164635411509	0
7	9097	31.264589411509	1
7	9102	31.264635411509	0
7	9125	31.364589411509	1
7	9130	31.364635411509	0
7	9153	31.464589411509	1
7	9158	31.464635411509	0
7	9181	31.564589411509	1
7	9186	31.564635411509	0
7	9209	31.664589411509	1
7	9214	31.664635411509	0
7	9237	31.764589411509	1
7	9242	31.764635411509	0
7	9265	31.864589411509	1
7	9270	31.864635411509	0
7	9293	31.964589411509	1
7	9298	31.964635411509	0
7	9321	32.064589411509	1
7	9326	32.064635411509	0
7	9349	32.164589411509	1
7	9354	32.164635411509	0
7	9377	32.264589411509	1
7	9382	32.264635411509	0
7	9405	32.364589411509	1
7	9410	32.364635411509	0
7	9433	32.464589411509	1
7	9438	32.464635411509	0
7	9461	32.564589411509	1
7	9466	32.564635411509	0
7	9489	32.664589411509	1
7	9494	32.664635411509	0
7	9517	32.764589411509	1
7	9522	32.764635411509	0
7	9545	32.864589411509	1
7	9550	32.864635411509	0
7	9573	32.964589411509	1
7	9578	32.964635411509	0
7	9601	33.064589411509	1
7	9606	33.064635411509	0
7	9629	33.164589411509	1
7	9634	33.164635411509	0
7	9657	33.264589411509	1
7	9662	33.264635411509	0
7	9685	33.364589411509	1
7	9690	33.364635411509	0
7	9713	33.464589411509	1
7	9718	33.464635411509	0
7	9741	33.564589411509	1
7	9746	33.564635411509	0
7	9769	33.664589411509	1
7	9774	33.664635411509	0
7	9797	33.764589411509	1
7	9802	33.764635411509	0
7	9825	33.864589411509	1
7	9830	33.864635411509	0
7	9853	33.964589411509	1
7	9858	33.964635411509	0
7	9881	34.064589411509	1
7	9886	34.064635411509	0
7	9909	34.164589411509	1
7	9914	34.164635411509	0
7	9937	34.264589411509	1
7	9942	34.264635411509	0
7	9965	34.364589411509	1
7	9970	34.364635411509	0
7	9993	34.464589411509	1
7	9998	34.464635411509	0
7	10021	34.564589411509	1
7	10026	34.564635411509	0
7	10049	34.664589411509	1
7	10054	34.664635411509	0
8	0	0	0
8	0	0	0
8	15	0.064589411509	1
8	16	0.064589411509	0
8	43	0.164589411509	1
8	44	0.164589411509	0
8	75	0.264589411509	1
8	76	0.264589411509	0
8	102	0.287107351557	1
8	104	0.287177351557	0
8	144	0.364589411509	1
8	145	0.364589411509	0
8	173	0.464589411509	1
8	174	0.464589411509	0
8	201	0.564589411509	1
8	202	0.564589411509	0
8	232	0.664589411509	1
8	233	0.664589411509	0
8	271	0.764589411509	1
8	272	0.764589411509	0
8	300	0.864589411509	1
8	301	0.864589411509	0
8	339	0.964589411509	1
8	340	0.964589411509	0
8	365	1.064589411509	1
8	366	1.064589411509	0
8	394	1.164589411509	1
8	395	1.164589411509	0
8	433	1.264589411509	1
8	434	1.264589411509	0
8	462	1.364589411509	1
8	463	1.364589411509	0
8	501	1.464589411509	1
8	502	1.464589411509	0
8	527	1.564589411509	1
8	528	1.564589411509	0
8	556	1.664589411509	1
8	557	1.664589411509	0
8	595	1.764589411509	1
8	596	1.764589411509	0
8	624	1.864589411509	1
8	625	1.864589411509	0
8	663	1.964589411509	1
8	664	1.964589411509	0
8	689	2.064589411509	1
8	690	2.064589411509	0
8	718	2.164589411509	1
8	719	2.164589411509	0
8	757	2.264589411509	1
8	758	2.264589411509	0
8	786	2.364589411509	1
8	787	2.364589411509	0
8	825	2.464589411509	1
8	826	2.464589411509	0
8	851	2.564589411509	1
8	852	2.564589411509	0
8	880	2.664589411509	1
8	881	2.664589411509	0
8	919	2.764589411509	1
8	920	2.764589411509	0
8	948	2.864589411509	1
8	949	2.864589411509	0
8	987	2.964589411509	1
8	988	2.964589411509	0
8	1013	3.064589411509	1
8	1014	3.064589411509	0
8	1042	3.164589411509	1
8	1043	3.164589411509	0
8	1081	3.264589411509	1
8	1082	3.264589411509	0
8	1110	3.364589411509	1
8	1111	3.364589411509	0
8	1149	3.464589411509	1
8	1150	3.464589411509	0
8	1175	3.564589411509	1
8	1176	3.564589411509	0
8	1204	3.587111351557	1
8	1206	3.587121351557	0
8	1213	3.587155351557	1
8	1217	3.587285351557	0
8	1252	3.587483836833	1
8	1254	3.587493836833	0
8	1261	3.587527836833	1
8	1265	3.587617836833	0
8	1304	3.587876322109	1
8	1306	3.587886322109	0
8	1313	3.587920322109	1
8	1317	3.588030322109	0
8	1367	3.664589411509	1
8	1368	3.664589411509	0
8	1395	3.764589411509	1
8	1396	3.764589411509	0
8	1423	3.864589411509	1
8	1424	3.864589411509	0
8	1451	3.964589411509	1
8	1452	3.964589411509	0
8	1479	4.064589411509	1
8	1480	4.064589411509	0
8	1507	4.164589411509	1
8	1508	4.164589411509	0
8	1535	4.264589411509	1
8	1536	4.264589411509	0
8	1563	4.364589411509	1
8	1564	4.364589411509	0
8	1591	4.464589411509	1
8	1592	4.464589411509	0
8	1619	4.564589411509	1
8	1620	4.564589411509	0
8	1647	4.664589411509	1
8	1648	4.664589411509	0
8	1675	4.764589411509	1
8	1676	4.764589411509	0
8	1703	4.864589411509	1
8	1704	4.864589411509	0
8	1731	4.964589411509	1
8	1732	4.964589411509	0
8	1759	5.064589411509	1
8	1760	5.064589411509	0
8	1787	5.164589411509	1
8	1788	5.164589411509	0
8	1815	5.264589411509	1
8	1816	5.264589411509	0
8	1843	5.364589411509	1
8	1844	5.364589411509	0
8	1871	5.464589411509	1
8	1872	5.464589411509	0
8	1899	5.564589411509	1
8	1900	5.564589411509	0
8	1927	5.664589411509	1
8	1928	5.664589411509	0
8	1955	5.764589411509	1
8	1956	5.764589411509	0
8	1983	5.864589411509	1
8	1984	5.864589411509	0
8	2011	5.964589411509	1
8	2012	5.964589411509	0
8	2039	6.064589411509	1
8	2040	6.064589411509	0
8	2067	6.164589411509	1
8	2068	6.164589411509	0
8	2095	6.264589411509	1
8	2096	6.264589411509	0
8	2123	6.364589411509	1
8	2124	6.364589411509	0
8	2151	6.464589411509	1
8	2152	6.464589411509	0
8	2179	6.564589411509	1
8	2180	6.564589411509	0
8	2207	6.664589411509	1
8	2208	6.664589411509	0
8	2235	6.764589411509	1
8	2236	6.764589411509	0
8	2263	6.864589411509	1
8	2264	6.864589411509	0
8	2291	6.964589411509	1
8	2292	6.964589411509	0
8	2319	7.064589411509	1
8	2320	7.064589411509	0
8	2347	7.164589411509	1
8	2348	7.164589411509	0
8	2375	7.264589411509	1
8	2376	7.264589411509	0
8	2403	7.364589411509	1
8	2404	7.364589411509	0
8	2431	7.464589411509	1
8	2432	7.464589411509	0
8	2459	7.564589411509	1
8	2460	7.564589411509	0
8	2487	7.664589411509	1
8	2488	7.664589411509	0
8	2515	7.764589411509	1
8	2516	7.764589411509	0
8	2543	7.864589411509	1
8	2544	7.864589411509	0
8	2571	7.964589411509	1
8	2572	7.964589411509	0
8	2599	8.064589411509	1
8	2600	8.064589411509	0
8	2627	8.164589411509	1
8	2628	8.164589411509	0
8	2655	8.264589411509	1
8	2656	8.264589411509	0
8	2683	8.364589411509	1
8	2684	8.364589411509	0
8	2711	8.464589411509	1
8	2712	8.464589411509	0
8	2739	8.564589411509	1
8	2740	8.564589411509	0
8	2767	8.664589411509	1
8	2768	8.664589411509	0
8	2795	8.764589411509	1
8	2796	8.764589411509	0
8	2823	8.864589411509	1
8	2824	8.864589411509	0
8	2851	8.964589411509	1
8	2852	8.964589411509	0
8	2879	9.064589411509	1
8	2880	9.064589411509	0
8	2907	9.164589411509	1
8	2908	9.164589411509	0
8	2935	9.264589411509	1
8	2936	9.264589411509	0
8	2963	9.364589411509	1
8	2964	9.364589411509	0
8	2991	9.464589411509	1
8	2992	9.464589411509	0
8	3019	9.564589411509	1
8	3020	9.564589411509	0
8	3047	9.664589411509	1
8	3048	9.664589411509	0
8	3075	9.764589411509	1
8	3076	9.764589411509	0
8	3103	9.864589411509	1
8	3104	9.864589411509	0
8	3131	9.964589411509	1
8	3132	9.964589411509	0
8	3159	10.064589411509	1
8	3160	10.064589411509	0
8	3187	10.164589411509	1
8	3188	10.164589411509	0
8	3215	10.264589411509	1
8	3216	10.264589411509	0
8	3243	10.364589411509	1
8	3244	10.364589411509	0
8	3271	10.464589411509	1
8	3272	10.464589411509	0
8	3299	10.564589411509	1
8	3300	10.564589411509	0
8	3327	10.664589411509	1
8	3328	10.664589411509	0
8	3355	10.764589411509	1
8	3356	10.764589411509	0
8	3383	10.864589411509	1
8	3384	10.864589411509	0
8	3411	10.964589411509	1
8	3412	10.964589411509	0
8	3439	11.064589411509	1
8	3440	11.064589411509	0
8	3467	11.164589411509	1
8	3468	11.164589411509	0
8	3495	11.264589411509	1
8	3496	11.264589411509	0
8	3523	11.364589411509	1
8	3524	11.364589411509	0
8	3551	11.464589411509	1
8	3552	11.464589411509	0
8	3579	11.564589411509	1
8	3580	11.564589411509	0
8	3607	11.664589411509	1
8	3608	11.664589411509	0
8	3635	11.764589411509	1
8	3636	11.764589411509	0
8	3663	11.864589411509	1
8	3664	11.864589411509	0
8	3691	11.964589411509	1
8	3692	11.964589411509	0
8	3719	12.064589411509	1
8	3720	12.064589411509	0
8	3747	12.164589411509	1
8	3748	12.164589411509	0
8	3775	12.264589411509	1
8	3776	12.264589411509	0
8	3803	12.364589411509	1
8	3804	12.364589411509	0
8	3831	12.464589411509	1
8	3832	12.464589411509	0
8	3859	12.564589411509	1
8	3860	12.564589411509	0
8	3887	12.664589411509	1
8	3888	12.664589411509	0
8	3915	12.764589411509	1
8	3916	12.764589411509	0
8	3943	12.864589411509	1
8	3944	12.864589411509	0
8	3971	12.964589411509	1
8	3972	12.964589411509	0
8	3999	13.064589411509	1
8	4000	13.064589411509	0
8	4027	13.164589411509	1
8	4028	13.164589411509	0
8	4055	13.264589411509	1
8	4056	13.264589411509	0
8	4083	13.364589411509	1
8	4084	13.364589411509	0
8	4111	13.464589411509	1
8	4112	13.464589411509	0
8	4139	13.564589411509	1
8	4140	13.564589411509	0
8	4167	13.664589411509	1
8	4168	13.664589411509	0
8	4195	13.764589411509	1
8	4196	13.764589411509	0
8	4223	13.864589411509	1
8	4224	13.864589411509	0
8	4251	13.964589411509	1
8	4252	13.964589411509	0
8	4279	14.064589411509	1
8	4280	14.064589411509	0
8	4307	14.164589411509	1
8	4308	14.164589411509	0
8	4335	14.264589411509	1
8	4336	14.264589411509	0
8	4363	14.364589411509	1
8	4364	14.364589411509	0
8	4391	14.464589411509	1
8	4392	14.464589411509	0
8	4419	14.564589411509	1
8	4420	14.564589411509	0
8	4447	14.664589411509	1
8	4448	14.664589411509	0
8	4475	14.764589411509	1
8	4476	14.764589411509	0
8	4503	14.864589411509	1
8	4504	14.864589411509	0
8	4531	14.964589411509	1
8	4532	14.964589411509	0
8	4559	15.064589411509	1
8	4560	15.064589411509	0
8	4587	15.164589411509	1
8	4588	15.164589411509	0
8	4615	15.264589411509	1
8	4616	15.264589411509	0
8	4643	15.364589411509	1
8	4644	15.364589411509	0
8	4671	15.464589411509	1
8	4672	15.464589411509	0
8	4699	15.564589411509	1
8	4700	15.564589411509	0
8	4727	15.664589411509	1
8	4728	15.664589411509	0
8	4755	15.764589411509	1
8	4756	15.764589411509	0
8	4783	15.864589411509	1
8	4784	15.864589411509	0
8	4811	15.964589411509	1
8	4812	15.964589411509	0
8	4839	16.064589411509	1
8	4840	16.064589411509	0
8	4867	16.164589411509	1
8	4868	16.164589411509	0
8	4895	16.264589411509	1
8	4896	16.264589411509	0
8	4923	16.364589411509	1
8	4924	16.364589411509	0
8	4951	16.464589411509	1
8	4952	16.464589411509	0
8	4979	16.564589411509	1
8	4980	16.564589411509	0
8	5007	16.664589411509	1
8	5008	16.664589411509	0
8	5035	16.764589411509	1
8	5036	16.764589411509	0
8	5063	16.864589411509	1
8	5064	16.864589411509	0
8	5091	16.964589411509	1
8	5092	16.964589411509	0
8	5119	17.064589411509	1
8	5120	17.064589411509	0
8	5147	17.164589411509	1
8	5148	17.164589411509	0
8	5175	17.264589411509	1
8	5176	17.264589411509	0
8	5203	17.364589411509	1
8	5204	17.364589411509	0
8	5231	17.464589411509	1
8	5232	17.464589411509	0
8	5259	17.564589411509	1
8	5260	17.564589411509	0
8	5287	17.664589411509	1
8	5288	17.664589411509	0
8	5315	17.764589411509	1
8	5316	17.764589411509	0
8	5343	17.864589411509	1
8	5344	17.864589411509	0
8	5371	17.964589411509	1
8	5372	17.964589411509	0
8	5399	18.064589411509	1
8	5400	18.064589411509	0
8	5427	18.164589411509	1
8	5428	18.164589411509	0
8	5455	18.264589411509	1
8	5456	18.264589411509	0
8	5483	18.364589411509	1
8	5484	18.364589411509	0
8	5511	18.464589411509	1
8	5512	18.464589411509	0
8	5539	18.564589411509	1
8	5540	18.564589411509	0
8	5567	18.664589411509	1
8	5568	18.664589411509	0
8	5595	18.764589411509	1
8	5596	18.764589411509	0
8	5623	18.864589411509	1
8	5624	18.864589411509	0
8	5651	18.964589411509	1
8	5652	18.964589411509	0
8	5679	19.064589411509	1
8	5680	19.064589411509	0
8	5707	19.164589411509	1
8	5708	19.164589411509	0
8	5735	19.264589411509	1
8	5736	19.264589411509	0
8	5763	19.364589411509	1
8	5764	19.364589411509	0
8	5791	19.464589411509	1
8	5792	19.464589411509	0
8	5819	19.564589411509	1
8	5820	19.564589411509	0
8	5847	19.664589411509	1
8	5848	19.664589411509	0
8	5875	19.764589411509	1
8	5876	19.764589411509	0
8	5903	19.864589411509	1
8	5904	19.864589411509	0
8	5931	19.964589411509	1
8	5932	19.964589411509	0
8	5959	20.064589411509	1
8	5960	20.064589411509	0
8	5987	20.164589411509	1
8	5988	20.164589411509	0
8	6015	20.264589411509	1
8	6016	20.264589411509	0
8	6043	20.364589411509	1
8	6044	20.364589411509	0
8	6071	20.464589411509	1
8	6072	20.464589411509	0
8	6099	20.564589411509	1
8	6100	20.564589411509	0
8	6127	20.664589411509	1
8	6128	20.664589411509	0
8	6155	20.764589411509	1
8	6156	20.764589411509	0
8	6183	20.864589411509	1
8	6184	20.864589411509	0
8	6211	20.964589411509	1
8	6212	20.964589411509	0
8	6239	21.064589411509	1
8	6240	21.064589411509	0
8	6267	21.164589411509	1
8	6268	21.164589411509	0
8	6295	21.264589411509	1
8	6296	21.264589411509	0
8	6323	21.364589411509	1
8	6324	21.364589411509	0
8	6351	21.464589411509	1
8	6352	21.464589411509	0
8	6379	21.564589411509	1
8	6380	21.564589411509	0
8	6407	21.664589411509	1
8	6408	21.664589411509	0
8	6435	21.764589411509	1
8	6436	21.764589411509	0
8	6463	21.864589411509	1
8	6464	21.864589411509	0
8	6491	21.964589411509	1
8	6492	21.964589411509	0
8	6519	22.064589411509	1
8	6520	22.064589411509	0
8	6547	22.164589411509	1
8	6548	22.164589411509	0
8	6575	22.264589411509	1
8	6576	22.264589411509	0
8	6603	22.364589411509	1
8	6604	22.364589411509	0
8	6631	22.464589411509	1
8	6632	22.464589411509	0
8	6659	22.564589411509	1
8	6660	22.564589411509	0
8	6687	22.664589411509	1
8	6688	22.664589411509	0
8	6715	22.764589411509	1
8	6716	22.764589411509	0
8	6743	22.864589411509	1
8	6744	22.864589411509	0
8	6771	22.964589411509	1
8	6772	22.964589411509	0
8	6799	23.064589411509	1
8	6800	23.064589411509	0
8	6827	23.164589411509	1
8	6828	23.164589411509	0
8	6855	23.264589411509	1
8	6856	23.264589411509	0
8	6883	23.364589411509	1
8	6884	23.364589411509	0
8	6911	23.464589411509	1
8	6912	23.464589411509	0
8	6939	23.564589411509	1
8	6940	23.564589411509	0
8	6967	23.664589411509	1
8	6968	23.664589411509	0
8	6995	23.764589411509	1
8	6996	23.764589411509	0
8	7023	23.864589411509	1
[...]
86	6547	22.1	3840
86	6575	22.2	3840
86	6603	22.3	3840
86	6631	22.4	3840
86	6659	22.5	3840
86	6687	22.6	3840
86	6715	22.7	3840
86	6743	22.8	3840
86	6771	22.9	3840
86	6799	23	3840
86	6827	23.1	3840
86	6855	23.2	3840
86	6883	23.3	3840
86	6911	23.4	3840
86	6939	23.5	3840
86	6967	23.6	3840
86	6995	23.7	3840
86	7023	23.8	3840
86	7051	23.9	3840
86	7079	24	3840
86	7107	24.1	3840
86	7135	24.2	3840
86	7163	24.3	3840
86	7191	24.4	3840
86	7219	24.5	3840
86	7247	24.6	3840
86	7275	24.7	3840
86	7303	24.8	3840
86	7331	24.9	3840
86	7359	25	3840
86	7387	25.1	3840
86	7415	25.2	3840
86	7443	25.3	3840
86	7471	25.4	3840
86	7499	25.5	3840
86	7527	25.6	3840
86	7555	25.7	3840
86	7583	25.8	3840
86	7611	25.9	3840
86	7639	26	3840
86	7667	26.1	3840
86	7695	26.2	3840
86	7723	26.3	3840
86	7751	26.4	3840
86	7779	26.5	3840
86	7807	26.6	3840
86	7835	26.7	3840
86	7863	26.8	3840
86	7891	26.9	3840
86	7919	27	3840
86	7947	27.1	3840
86	7975	27.2	3840
86	8003	27.3	3840
86	8031	27.4	3840
86	8059	27.5	3840
86	8087	27.6	3840
86	8115	27.7	3840
86	8143	27.8	3840
86	8171	27.9	3840
86	8199	28	3840
86	8227	28.1	3840
86	8255	28.2	3840
86	8283	28.3	3840
86	8311	28.4	3840
86	8339	28.5	3840
86	8367	28.6	3840
86	8395	28.7	3840
86	8423	28.8	3840
86	8451	28.9	3840
86	8479	29	3840
86	8507	29.1	3840
86	8535	29.2	3840
86	8563	29.3	3840
86	8591	29.4	3840
86	8619	29.5	3840
86	8647	29.6	3840
86	8675	29.7	3840
86	8703	29.8	3840
86	8731	29.9	3840
86	8759	30	3840
86	8787	30.1	3840
86	8815	30.2	3840
86	8843	30.3	3840
86	8871	30.4	3840
86	8899	30.5	3840
86	8927	30.6	3840
86	8955	30.7	3840
86	8983	30.8	3840
86	9011	30.9	3840
86	9039	31	3840
86	9067	31.1	3840
86	9095	31.2	3840
86	9123	31.3	3840
86	9151	31.4	3840
86	9179	31.5	3840
86	9207	31.6	3840
86	9235	31.7	3840
86	9263	31.8	3840
86	9291	31.9	3840
86	9319	32	3840
86	9347	32.1	3840
86	9375	32.2	3840
86	9403	32.3	3840
86	9431	32.4	3840
86	9459	32.5	3840
86	9487	32.6	3840
86	9515	32.7	3840
86	9543	32.8	3840
86	9571	32.9	3840
86	9599	33	3840
86	9627	33.1	3840
86	9655	33.2	3840
86	9683	33.3	3840
86	9711	33.4	3840
86	9739	33.5	3840
86	9767	33.6	3840
86	9795	33.7	3840
86	9823	33.8	3840
86	9851	33.9	3840
86	9879	34	3840
86	9907	34.1	3840
86	9935	34.2	3840
86	9963	34.3	3840
86	9991	34.4	3840
86	10019	34.5	3840
86	10047	34.6	3840
87	45	0.1	3840
87	77	0.2	3840
87	146	0.3	7680
87	175	0.4	3840
87	203	0.5	3840
87	234	0.6	3840
87	273	0.7	3840
87	302	0.8	3840
87	341	0.9	3840
87	367	1	3840
87	396	1.1	3840
87	435	1.2	3840
87	464	1.3	3840
87	503	1.4	3840
87	529	1.5	3840
87	558	1.6	3840
87	597	1.7	3840
87	626	1.8	3840
87	665	1.9	3840
87	691	2	3840
87	720	2.1	3840
87	759	2.2	3840
87	788	2.3	3840
87	827	2.4	3840
87	853	2.5	3840
87	882	2.6	3840
87	921	2.7	3840
87	950	2.8	3840
87	989	2.9	3840
87	1015	3	3840
87	1044	3.1	3840
87	1083	3.2	3840
87	1112	3.3	3840
87	1151	3.4	3840
87	1177	3.5	3840
87	1369	3.6	12160
87	1397	3.7	3840
87	1425	3.8	3840
87	1453	3.9	3840
87	1481	4	3840
87	1509	4.1	3840
87	1537	4.2	3840
87	1565	4.3	3840
87	1593	4.4	3840
87	1621	4.5	3840
87	1649	4.6	3840
87	1677	4.7	3840
87	1705	4.8	3840
87	1733	4.9	3840
87	1761	5	3840
87	1789	5.1	3840
87	1817	5.2	3840
87	1845	5.3	3840
87	1873	5.4	3840
87	1901	5.5	3840
87	1929	5.6	3840
87	1957	5.7	3840
87	1985	5.8	3840
87	2013	5.9	3840
87	2041	6	3840
87	2069	6.1	3840
87	2097	6.2	3840
87	2125	6.3	3840
87	2153	6.4	3840
87	2181	6.5	3840
87	2209	6.6	3840
87	2237	6.7	3840
87	2265	6.8	3840
87	2293	6.9	3840
87	2321	7	3840
87	2349	7.1	3840
87	2377	7.2	3840
87	2405	7.3	3840
87	2433	7.4	3840
87	2461	7.5	3840
87	2489	7.6	3840
87	2517	7.7	3840
87	2545	7.8	3840
87	2573	7.9	3840
87	2601	8	3840
87	2629	8.1	3840
87	2657	8.2	3840
87	2685	8.3	3840
87	2713	8.4	3840
87	2741	8.5	3840
87	2769	8.6	3840
87	2797	8.7	3840
87	2825	8.8	3840
87	2853	8.9	3840
87	2881	9	3840
87	2909	9.1	3840
87	2937	9.2	3840
87	2965	9.3	3840
87	2993	9.4	3840
87	3021	9.5	3840
87	3049	9.6	3840
87	3077	9.7	3840
87	3105	9.8	3840
87	3133	9.9	3840
87	3161	10	3840
87	3189	10.1	3840
87	3217	10.2	3840
87	3245	10.3	3840
87	3273	10.4	3840
87	3301	10.5	3840
87	3329	10.6	3840
87	3357	10.7	3840
87	3385	10.8	3840
87	3413	10.9	3840
87	3441	11	3840
87	3469	11.1	3840
87	3497	11.2	3840
87	3525	11.3	3840
87	3553	11.4	3840
87	3581	11.5	3840
87	3609	11.6	3840
87	3637	11.7	3840
87	3665	11.8	3840
87	3693	11.9	3840
87	3721	12	3840
87	3749	12.1	3840
87	3777	12.2	3840
87	3805	12.3	3840
87	3833	12.4	3840
87	3861	12.5	3840
87	3889	12.6	3840
87	3917	12.7	3840
87	3945	12.8	3840
87	3973	12.9	3840
87	4001	13	3840
87	4029	13.1	3840
87	4057	13.2	3840
87	4085	13.3	3840
87	4113	13.4	3840
87	4141	13.5	3840
87	4169	13.6	3840
87	4197	13.7	3840
87	4225	13.8	3840
87	4253	13.9	3840
87	4281	14	3840
87	4309	14.1	3840
87	4337	14.2	3840
87	4365	14.3	3840
87	4393	14.4	3840
87	4421	14.5	3840
87	4449	14.6	3840
87	4477	14.7	3840
87	4505	14.8	3840
87	4533	14.9	3840
87	4561	15	3840
87	4589	15.1	3840
87	4617	15.2	3840
87	4645	15.3	3840
87	4673	15.4	3840
87	4701	15.5	3840
87	4729	15.6	3840
87	4757	15.7	3840
87	4785	15.8	3840
87	4813	15.9	3840
87	4841	16	3840
87	4869	16.1	3840
87	4897	16.2	3840
87	4925	16.3	3840
87	4953	16.4	3840
87	4981	16.5	3840
87	5009	16.6	3840
87	5037	16.7	3840
87	5065	16.8	3840
87	5093	16.9	3840
87	5121	17	3840
87	5149	17.1	3840
87	5177	17.2	3840
87	5205	17.3	3840
87	5233	17.4	3840
87	5261	17.5	3840
87	5289	17.6	3840
87	5317	17.7	3840
87	5345	17.8	3840
87	5373	17.9	3840
87	5401	18	3840
87	5429	18.1	3840
87	5457	18.2	3840
87	5485	18.3	3840
87	5513	18.4	3840
87	5541	18.5	3840
87	5569	18.6	3840
87	5597	18.7	3840
87	5625	18.8	3840
87	5653	18.9	3840
87	5681	19	3840
87	5709	19.1	3840
87	5737	19.2	3840
87	5765	19.3	3840
87	5793	19.4	3840
87	5821	19.5	3840
87	5849	19.6	3840
87	5877	19.7	3840
87	5905	19.8	3840
87	5933	19.9	3840
87	5961	20	3840
87	5989	20.1	3840
87	6017	20.2	3840
87	6045	20.3	3840
87	6073	20.4	3840
87	6101	20.5	3840
87	6129	20.6	3840
87	6157	20.7	3840
87	6185	20.8	3840
87	6213	20.9	3840
87	6241	21	3840
87	6269	21.1	3840
87	6297	21.2	3840
87	6325	21.3	3840
87	6353	21.4	3840
87	6381	21.5	3840
87	6409	21.6	3840
87	6437	21.7	3840
87	6465	21.8	3840
87	6493	21.9	3840
87	6521	22	3840
87	6549	22.1	3840
87	6577	22.2	3840
87	6605	22.3	3840
87	6633	22.4	3840
87	6661	22.5	3840
87	6689	22.6	3840
87	6717	22.7	3840
87	6745	22.8	3840
87	6773	22.9	3840
87	6801	23	3840
87	6829	23.1	3840
87	6857	23.2	3840
87	6885	23.3	3840
87	6913	23.4	3840
87	6941	23.5	3840
87	6969	23.6	3840
87	6997	23.7	3840
87	7025	23.8	3840
87	7053	23.9	3840
87	7081	24	3840
87	7109	24.1	3840
87	7137	24.2	3840
87	7165	24.3	3840
87	7193	24.4	3840
87	7221	24.5	3840
87	7249	24.6	3840
87	7277	24.7	3840
87	7305	24.8	3840
87	7333	24.9	3840
87	7361	25	3840
87	7389	25.1	3840
87	7417	25.2	3840
87	7445	25.3	3840
87	7473	25.4	3840
87	7501	25.5	3840
87	7529	25.6	3840
87	7557	25.7	3840
87	7585	25.8	3840
87	7613	25.9	3840
87	7641	26	3840
87	7669	26.1	3840
87	7697	26.2	3840
87	7725	26.3	3840
87	7753	26.4	3840
87	7781	26.5	3840
87	7809	26.6	3840
87	7837	26.7	3840
87	7865	26.8	3840
87	7893	26.9	3840
87	7921	27	3840
87	7949	27.1	3840
87	7977	27.2	3840
87	8005	27.3	3840
87	8033	27.4	3840
87	8061	27.5	3840
87	8089	27.6	3840
87	8117	27.7	3840
87	8145	27.8	3840
87	8173	27.9	3840
87	8201	28	3840
87	8229	28.1	3840
87	8257	28.2	3840
87	8285	28.3	3840
87	8313	28.4	3840
87	8341	28.5	3840
87	8369	28.6	3840
87	8397	28.7	3840
87	8425	28.8	3840
87	8453	28.9	3840
87	8481	29	3840
87	8509	29.1	3840
87	8537	29.2	3840
87	8565	29.3	3840
87	8593	29.4	3840
87	8621	29.5	3840
87	8649	29.6	3840
87	8677	29.7	3840
87	8705	29.8	3840
87	8733	29.9	3840
87	8761	30	3840
87	8789	30.1	3840
87	8817	30.2	3840
87	8845	30.3	3840
87	8873	30.4	3840
87	8901	30.5	3840
87	8929	30.6	3840
87	8957	30.7	3840
87	8985	30.8	3840
87	9013	30.9	3840
87	9041	31	3840
87	9069	31.1	3840
87	9097	31.2	3840
87	9125	31.3	3840
87	9153	31.4	3840
87	9181	31.5	3840
87	9209	31.6	3840
87	9237	31.7	3840
87	9265	31.8	3840
87	9293	31.9	3840
87	9321	32	3840
87	9349	32.1	3840
87	9377	32.2	3840
87	9405	32.3	3840
87	9433	32.4	3840
87	9461	32.5	3840
87	9489	32.6	3840
87	9517	32.7	3840
87	9545	32.8	3840
87	9573	32.9	3840
87	9601	33	3840
87	9629	33.1	3840
87	9657	33.2	3840
87	9685	33.3	3840
87	9713	33.4	3840
87	9741	33.5	3840
87	9769	33.6	3840
87	9797	33.7	3840
87	9825	33.8	3840
87	9853	33.9	3840
87	9881	34	3840
87	9909	34.1	3840
87	9937	34.2	3840
87	9965	34.3	3840
87	9993	34.4	3840
87	10021	34.5	3840
87	10049	34.6	3840
88	57	0.187069108919	1
88	1188	3.587069108919	2
88	1276	3.587660079471	4
89	90	0.287069108919	256
89	245	0.687069108919	256
89	313	0.937069108919	256
89	407	1.187069108919	256
89	475	1.437069108919	256
89	569	1.687069108919	256
89	637	1.937069108919	256
89	731	2.187069108919	256
89	799	2.437069108919	256
89	893	2.687069108919	256
89	961	2.937069108919	256
89	1055	3.187069108919	256
89	1123	3.437069108919	256
89	1191	3.587069108919	272
89	1228	3.587327594195	272
89	1279	3.587660079471	288
90	90	0.1	0
90	90	0.2	0
90	245	0.3	2560
90	245	0.4	0
90	245	0.5	0
90	245	0.6	0
90	313	0.7	2560
90	313	0.8	0
90	313	0.9	0
90	407	1	2560
90	407	1.1	0
90	475	1.2	2560
90	475	1.3	0
90	475	1.4	0
90	569	1.5	2560
90	569	1.6	0
90	637	1.7	2560
90	637	1.8	0
90	637	1.9	0
90	731	2	2560
90	731	2.1	0
90	799	2.2	2560
90	799	2.3	0
90	799	2.4	0
90	893	2.5	2560
90	893	2.6	0
90	961	2.7	2560
90	961	2.8	0
90	961	2.9	0
90	1055	3	2560
90	1055	3.1	0
90	1123	3.2	2560
90	1123	3.3	0
90	1123	3.4	0
90	1191	3.5	2560
91	90	0.287069108919	1
91	92	0.287069108919	0
91	245	0.687069108919	1
91	247	0.687069108919	0
91	313	0.937069108919	1
91	315	0.937069108919	0
91	407	1.187069108919	1
91	409	1.187069108919	0
91	475	1.437069108919	1
91	477	1.437069108919	0
91	569	1.687069108919	1
91	571	1.687069108919	0
91	637	1.937069108919	1
91	639	1.937069108919	0
91	731	2.187069108919	1
91	733	2.187069108919	0
91	799	2.437069108919	1
91	801	2.437069108919	0
91	893	2.687069108919	1
91	895	2.687069108919	0
91	961	2.937069108919	1
91	963	2.937069108919	0
91	1055	3.187069108919	1
91	1057	3.187069108919	0
91	1123	3.437069108919	1
91	1125	3.437069108919	0
91	1191	3.587069108919	1
91	1194	3.587069108919	0
91	1228	3.587327594195	1
91	1242	3.587441594195	0
91	1279	3.587660079471	1
91	1294	3.587834079471	0
92	90	0.287069108919	256
92	92	0.287069108919	0
92	245	0.687069108919	256
92	247	0.687069108919	0
92	313	0.937069108919	256
92	315	0.937069108919	0
92	407	1.187069108919	256
92	409	1.187069108919	0
92	475	1.437069108919	256
92	477	1.437069108919	0
92	569	1.687069108919	256
92	571	1.687069108919	0
92	637	1.937069108919	256
92	639	1.937069108919	0
92	731	2.187069108919	256
92	733	2.187069108919	0
92	799	2.437069108919	256
92	801	2.437069108919	0
92	893	2.687069108919	256
92	895	2.687069108919	0
92	961	2.937069108919	256
92	963	2.937069108919	0
92	1055	3.187069108919	256
92	1057	3.187069108919	0
92	1123	3.437069108919	256
92	1125	3.437069108919	0
92	1191	3.587069108919	272
92	1194	3.587069108919	0
92	1228	3.587327594195	272
92	1242	3.587441594195	0
92	1279	3.587660079471	288
92	1294	3.587834079471	0
93	90	0.287069108919	2
93	245	0.687069108919	5
93	313	0.937069108919	0
93	407	1.187069108919	2
93	475	1.437069108919	5
93	569	1.687069108919	1
93	637	1.937069108919	2
93	731	2.187069108919	7
93	799	2.437069108919	4
93	893	2.687069108919	7
93	961	2.937069108919	7
93	1055	3.187069108919	3
93	1123	3.437069108919	2
93	1191	3.587069108919	5
93	1228	3.587327594195	1
93	1279	3.587660079471	4
94	92	0.287069108919	0
94	247	0.687069108919	0
94	315	0.937069108919	0
94	409	1.187069108919	0
94	477	1.437069108919	0
94	571	1.687069108919	0
94	639	1.937069108919	0
94	733	2.187069108919	0
94	801	2.437069108919	0
94	895	2.687069108919	0
94	963	2.937069108919	0
94	1057	3.187069108919	0
94	1125	3.437069108919	0
94	1194	3.587069108919	0
94	1242	3.587441594195	0.000114
94	1294	3.587834079471	0.000174
95	92	0.287069108919	256
95	247	0.687069108919	256
95	315	0.937069108919	256
95	409	1.187069108919	256
95	477	1.437069108919	256
95	571	1.687069108919	256
95	639	1.937069108919	256
95	733	2.187069108919	256
95	801	2.437069108919	256
95	895	2.687069108919	256
95	963	2.937069108919	256
95	1057	3.187069108919	256
95	1125	3.437069108919	256
95	1194	3.587069108919	272
95	1242	3.587441594195	272
95	1294	3.587834079471	288
96	92	0.1	0
96	92	0.2	0
96	247	0.3	2560
96	247	0.4	0
96	247	0.5	0
96	247	0.6	0
96	315	0.7	2560
96	315	0.8	0
96	315	0.9	0
96	409	1	2560
96	409	1.1	0
96	477	1.2	2560
96	477	1.3	0
96	477	1.4	0
96	571	1.5	2560
96	571	1.6	0
96	639	1.7	2560
96	639	1.8	0
96	639	1.9	0
96	733	2	2560
96	733	2.1	0
96	801	2.2	2560
96	801	2.3	0
96	801	2.4	0
96	895	2.5	2560
96	895	2.6	0
96	963	2.7	2560
96	963	2.8	0
96	963	2.9	0
96	1057	3	2560
96	1057	3.1	0
96	1125	3.2	2560
96	1125	3.3	0
96	1125	3.4	0
96	1194	3.5	2560
97	92	0.287069108919	24000000
97	113	0.287223594195	24000000
97	247	0.687069108919	24000000
97	315	0.937069108919	24000000
97	409	1.187069108919	24000000
97	477	1.437069108919	24000000
97	571	1.687069108919	24000000
97	639	1.937069108919	24000000
97	733	2.187069108919	24000000
97	801	2.437069108919	24000000
97	895	2.687069108919	24000000
97	963	2.937069108919	24000000
97	1057	3.187069108919	24000000
97	1125	3.437069108919	24000000
97	1194	3.587069108919	24000000
97	1226	3.587327594195	24000000
97	1242	3.587441594195	24000000
97	1274	3.587660079471	24000000
97	1294	3.587834079471	24000000
97	1326	3.588072564747	24000000
98	92	0.287069108919	32
98	115	0.287233594195	14
98	247	0.687069108919	32
98	315	0.937069108919	32
98	409	1.187069108919	32
98	477	1.437069108919	32
98	571	1.687069108919	32
98	639	1.937069108919	32
98	733	2.187069108919	32
98	801	2.437069108919	32
98	895	2.687069108919	32
98	963	2.937069108919	32
98	1057	3.187069108919	32
98	1125	3.437069108919	32
98	1194	3.587069108919	34
98	1229	3.587337594195	14
98	1242	3.587441594195	34
98	1281	3.587670079471	14
98	1294	3.587834079471	36
98	1329	3.588082564747	14
99	93	0.287069108919	1
99	94	0.287069108919	2
99	97	0.287107108919	1
99	98	0.287107108919	0
99	116	0.287233594195	1
99	117	0.287233594195	2
99	122	0.287267594195	1
99	123	0.287267594195	0
99	248	0.687069108919	1
99	249	0.687069108919	2
99	252	0.687107108919	1
99	253	0.687107108919	0
99	316	0.937069108919	1
99	317	0.937069108919	2
99	320	0.937107108919	1
99	321	0.937107108919	0
99	410	1.187069108919	1
99	411	1.187069108919	2
99	414	1.187107108919	1
99	415	1.187107108919	0
99	478	1.437069108919	1
99	479	1.437069108919	2
99	482	1.437107108919	1
99	483	1.437107108919	0
99	572	1.687069108919	1
99	573	1.687069108919	2
99	576	1.687107108919	1
99	577	1.687107108919	0
99	640	1.937069108919	1
99	641	1.937069108919	2
99	644	1.937107108919	1
99	645	1.937107108919	0
99	734	2.187069108919	1
99	735	2.187069108919	2
99	738	2.187107108919	1
99	739	2.187107108919	0
99	802	2.437069108919	1
99	803	2.437069108919	2
99	806	2.437107108919	1
99	807	2.437107108919	0
99	896	2.687069108919	1
99	897	2.687069108919	2
99	900	2.687107108919	1
99	901	2.687107108919	0
99	964	2.937069108919	1
99	965	2.937069108919	2
99	968	2.937107108919	1
99	969	2.937107108919	0
99	1058	3.187069108919	1
99	1059	3.187069108919	2
99	1062	3.187107108919	1
99	1063	3.187107108919	0
99	1126	3.437069108919	1
99	1127	3.437069108919	2
99	1130	3.437107108919	1
99	1131	3.437107108919	0
99	1195	3.587069108919	1
99	1196	3.587069108919	2
99	1199	3.587111108919	1
99	1200	3.587111108919	0
99	1230	3.587337594195	1
99	1231	3.587337594195	2
99	1236	3.587371594195	1
99	1237	3.587371594195	0
99	1243	3.587441594195	1
99	1244	3.587441594195	2
99	1247	3.587483594195	1
99	1248	3.587483594195	0
99	1282	3.587670079471	1
99	1283	3.587670079471	2
99	1288	3.587704079471	1
99	1289	3.587704079471	0
99	1295	3.587834079471	1
99	1296	3.587834079471	2
99	1299	3.587876079471	1
99	1300	3.587876079471	0
99	1330	3.588082564747	1
99	1331	3.588082564747	2
99	1336	3.588116564747	1
99	1337	3.588116564747	0
100	97	0.287107108919	32
100	122	0.287267594195	14
100	252	0.687107108919	32
100	320	0.937107108919	32
100	414	1.187107108919	32
100	482	1.437107108919	32
100	576	1.687107108919	32
100	644	1.937107108919	32
100	738	2.187107108919	32
100	806	2.437107108919	32
100	900	2.687107108919	32
100	968	2.937107108919	32
100	1062	3.187107108919	32
100	1130	3.437107108919	32
100	1199	3.587111108919	34
100	1236	3.587371594195	14
100	1247	3.587483594195	34
100	1288	3.587704079471	14
100	1299	3.587876079471	36
100	1336	3.588116564747	14
101	97	0.287107108919	32
101	252	0.687107108919	32
101	320	0.937107108919	32
101	414	1.187107108919	32
101	482	1.437107108919	32
101	576	1.687107108919	32
101	644	1.937107108919	32
101	738	2.187107108919	32
101	806	2.437107108919	32
101	900	2.687107108919	32
101	968	2.937107108919	32
101	1062	3.187107108919	32
101	1130	3.437107108919	32
102	97	0.287107108919	32
102	252	0.687107108919	32
102	320	0.937107108919	32
102	414	1.187107108919	32
102	482	1.437107108919	32
102	576	1.687107108919	32
102	644	1.937107108919	32
102	738	2.187107108919	32
102	806	2.437107108919	32
102	900	2.687107108919	32
102	968	2.937107108919	32
102	1062	3.187107108919	32
102	1130	3.437107108919	32
103	97	0.287107108919	32
103	122	0.287267594195	14
103	252	0.687107108919	32
103	320	0.937107108919	32
103	414	1.187107108919	32
103	482	1.437107108919	32
103	576	1.687107108919	32
103	644	1.937107108919	32
103	738	2.187107108919	32
103	806	2.437107108919	32
103	900	2.687107108919	32
103	968	2.937107108919	32
103	1062	3.187107108919	32
103	1130	3.437107108919	32
103	1199	3.587111108919	34
103	1236	3.587371594195	14
103	1247	3.587483594195	34
103	1288	3.587704079471	14
103	1299	3.587876079471	36
103	1336	3.588116564747	14
104	97	0.287107108919	3.8e-05
104	252	0.687107108919	3.8e-05
104	320	0.937107108919	3.8e-05
104	414	1.187107108919	3.8e-05
104	482	1.437107108919	3.8e-05
104	576	1.687107108919	3.8e-05
104	644	1.937107108919	3.8e-05
104	738	2.187107108919	3.8e-05
104	806	2.437107108919	3.8e-05
104	900	2.687107108919	3.8e-05
104	968	2.937107108919	3.8e-05
104	1062	3.187107108919	3.8e-05
104	1130	3.437107108919	3.8e-05
104	1215	3.587155594195	8.6485276e-05
104	1263	3.587528079471	8.6485276e-05
104	1315	3.587920564747	8.6485276e-05
105	100	0.287107351557	32
105	125	0.287267836833	14
105	1202	3.587111351557	34
105	1239	3.587371836833	14
105	1250	3.587483836833	34
105	1291	3.587704322109	14
105	1302	3.587876322109	36
105	1339	3.588116807385	14
106	100	0.287107351557	32
106	125	0.287267836833	14
106	1202	3.587111351557	34
106	1239	3.587371836833	14
106	1250	3.587483836833	34
106	1291	3.587704322109	14
106	1302	3.587876322109	36
106	1339	3.588116807385	14
107	100	0.287107351557	32
108	100	0.287107351557	32
109	100	0.287107351557	32
109	125	0.287267836833	14
109	1202	3.587111351557	34
109	1239	3.587371836833	14
109	1250	3.587483836833	34
109	1291	3.587704322109	14
109	1302	3.587876322109	36
109	1339	3.588116807385	14
110	110	0.287223351557	48
110	1212	3.587155351557	14
110	1223	3.587327351557	34
110	1260	3.587527836833	14
110	1271	3.587659836833	34
110	1312	3.587920322109	14
110	1323	3.588072322109	36
111	110	0.287223351557	0
111	110	0.287223351557	4.4e-05
111	121	0.287267351557	0
111	1223	3.587327351557	0
111	1223	3.587327351557	4.4e-05
111	1235	3.587371351557	0
111	1271	3.587659836833	0
111	1271	3.587659836833	4.4e-05
111	1287	3.587703836833	0
111	1323	3.588072322109	0
111	1323	3.588072322109	4.4e-05
111	1335	3.588116322109	0
112	113	0.287223594195	48
112	1215	3.587155594195	14
112	1226	3.587327594195	34
112	1263	3.587528079471	14
112	1274	3.587660079471	34
112	1315	3.587920564747	14
112	1326	3.588072564747	36
113	122	0.287267594195	14
113	1199	3.587111108919	34
113	1236	3.587371594195	14
113	1247	3.587483594195	34
113	1288	3.587704079471	14
113	1299	3.587876079471	36
113	1336	3.588116564747	14
114	125	0.287267836833	14
114	1202	3.587111351557	34
114	1239	3.587371836833	14
114	1250	3.587483836833	34
114	1291	3.587704322109	14
114	1302	3.587876322109	36
114	1339	3.588116807385	14
115	1188	3.587069108919	1
115	1276	3.587660079471	2
115	1328	3.588072564747	4
116	1199	3.587111108919	0
116	1199	3.587111108919	4.4e-05
116	1211	3.587155108919	0
116	1247	3.587483594195	0
116	1247	3.587483594195	4.4e-05
116	1259	3.587527594195	0
116	1299	3.587876079471	0
116	1299	3.587876079471	4.4e-05
116	1311	3.587920079471	0

